version 3
run General-0-20250610-12:54:50-71432
attr configname General
attr datetime 20250610-12:54:50
attr datetimef 20250610-125450
attr experiment General
attr inifile omnetpp.ini
attr iterationvars "$0=\"avg\""
attr iterationvarsd avg
attr iterationvarsf avg-
attr measurement "$0=\"avg\""
attr network package_delivery
attr processid 71432
attr repetition 0
attr replication #0
attr resultdir results
attr runnumber 0
attr seedset 0
config image-path ../../inet4.4/images
config network package_delivery
config **.maxTransmissionDuration 4s
config **.energyDetection -110dBm
config **.vector-recording true
config rng-class cMersenneTwister
config **.loRaGW.numUdpApps 1
config **.loRaGW.packetForwarder.localPort 2000
config **.loRaGW.packetForwarder.destPort 1000
config **.loRaGW.packetForwarder.destAddresses "\"server\""
config **.loRaGW.packetForwarder.indexNumber 0
config **.server.numApps 1
config **.server.**.evaluateADRinServer true
config **.server.app[0].typename ServerApp
config **.server.app[0].destAddresses "\"loRaGW\""
config **.server.app[0].destPort 2000
config **.server.app[0].localPort 1000
config **.server.app[0].adrMethod "\"avg\""
config **.numberOfPacketsToSend 0
config sim-time-limit 1d
config simtime-resolution -11
config repeat 30
config **.timeToFirstPacket exponential(1000s)
config **.timeToNextPacket exponential(1000s)
config **.alohaChannelModel false
config **.numberOfNodes 1
config **.constraintAreaMaxX 1000m
config **.constraintAreaMaxY 1000m
config **.node1.**.initialX 537m
config **.node1.**.initialY 519m
config **.node1.numApps 1
config **.node1.app[0].typename NewApp
config **.node1.app[0].**node_id 1
config **.node1.app[0].**node_seed 123
config **.node2.**.initialX 839m
config **.node2.**.initialY 322m
config **.node2.**.displayAddresses true
config **.node2.numApps 1
config **.node2.app[0].typename NewApp
config **.node2.app[0].**node_id 2
config **.node2.app[0].**node_seed 221
config **.node3.numApps 1
config **.node3.app[0].typename NewApp
config **.node3.app[0].**node_id 3
config **.node3.app[0].**node_seed 113
config **.node4.numApps 1
config **.node4.app[0].typename NewApp
config **.node4.app[0].**node_id 4
config **.node4.app[0].**node_seed 531
config **.**initialLoRaSF 12
config **.**initialLoRaTP 14dBm
config **.**initialLoRaBW "125 kHz"
config **.**initialLoRaCR 4
config **.**.initFromDisplayString false
config **.**.evaluateADRinNode false
config **.numberOfGateways 1
config **.loRaGW.**.initialX 546m
config **.loRaGW.**.initialY 297m
config **.LoRaNic.radio.energyConsumer.typename LoRaEnergyConsumer
config **.**.energySourceModule "\"^.IdealEpEnergyStorage\""
config **.LoRaNic.radio.energyConsumer.configFile "xmldoc(\"energyConsumptionParameters.xml\")"
config **.sigma 3.57
config **.constraintAreaMinX 0m
config **.constraintAreaMinY 0m
config **.constraintAreaMinZ 0m
config **.constraintAreaMaxZ 0m
config LoRaNetworkTest.**.radio.separateTransmissionParts false
config LoRaNetworkTest.**.radio.separateReceptionParts false
config **.ipv4Delayer.config "xmldoc(\"cloudDelays.xml\")"
config **.radio.radioMediumModule "\"loRaMedium\""
config **.loRaMedium.pathLossType "\"LoRaLogNormalShadowing\""
config **.minInterferenceTime 0s
config **.displayAddresses true
config **.loRaMedium.mediumLimitCacheType "\"LoRaMediumCache\""
config **.loRaMedium.rangeFilter "\"communicationRange\""
config **.loRaMedium.neighborCacheType "\"LoRaNeighborCache\""
config **.loRaMedium.neighborCache.range 546m
config **.loRaMedium.neighborCache.refillPeriod 3000s

par package_delivery.server.ethg$o[0].channel typename "\"inet.node.ethernet.Eth1G\""
par package_delivery.server.ethg$o[0].channel disabled false
attr mutable ""
par package_delivery.server.ethg$o[0].channel delay 5e-08s
attr mutable ""
attr unit s
par package_delivery.server.ethg$o[0].channel datarate 1e+09bps
attr mutable ""
attr unit bps
par package_delivery.server.ethg$o[0].channel ber 0
attr mutable ""
par package_delivery.server.ethg$o[0].channel per 0
attr mutable ""
par package_delivery.server.ethg$o[0].channel length 10m
attr unit m
par package_delivery.myRouter.ethg$o[0].channel typename "\"inet.node.ethernet.Eth1G\""
par package_delivery.myRouter.ethg$o[0].channel disabled false
attr mutable ""
par package_delivery.myRouter.ethg$o[0].channel delay 5e-08s
attr mutable ""
attr unit s
par package_delivery.myRouter.ethg$o[0].channel datarate 1e+09bps
attr mutable ""
attr unit bps
par package_delivery.myRouter.ethg$o[0].channel ber 0
attr mutable ""
par package_delivery.myRouter.ethg$o[0].channel per 0
attr mutable ""
par package_delivery.myRouter.ethg$o[0].channel length 10m
attr unit m
par package_delivery.loRaGW.ethg$o[0].channel typename "\"inet.node.ethernet.Eth1G\""
par package_delivery.loRaGW.ethg$o[0].channel disabled false
attr mutable ""
par package_delivery.loRaGW.ethg$o[0].channel delay 5e-08s
attr mutable ""
attr unit s
par package_delivery.loRaGW.ethg$o[0].channel datarate 1e+09bps
attr mutable ""
attr unit bps
par package_delivery.loRaGW.ethg$o[0].channel ber 0
attr mutable ""
par package_delivery.loRaGW.ethg$o[0].channel per 0
attr mutable ""
par package_delivery.loRaGW.ethg$o[0].channel length 10m
attr unit m
par package_delivery.myRouter.ethg$o[1].channel typename "\"inet.node.ethernet.Eth1G\""
par package_delivery.myRouter.ethg$o[1].channel disabled false
attr mutable ""
par package_delivery.myRouter.ethg$o[1].channel delay 5e-08s
attr mutable ""
attr unit s
par package_delivery.myRouter.ethg$o[1].channel datarate 1e+09bps
attr mutable ""
attr unit bps
par package_delivery.myRouter.ethg$o[1].channel ber 0
attr mutable ""
par package_delivery.myRouter.ethg$o[1].channel per 0
attr mutable ""
par package_delivery.myRouter.ethg$o[1].channel length 10m
attr unit m
par package_delivery.loRaGW.ethg$i[0].channel typename "\"ned.IdealChannel\""
par package_delivery.loRaGW.eth[0].phys$o.channel typename "\"ned.IdealChannel\""
par package_delivery.loRaGW.at typename "\"inet.common.MessageDispatcher\""
par package_delivery.loRaGW.at displayStringTextFormat "\"processed %p pk (%l)\""
par package_delivery.loRaGW.at forwardServiceRegistration true
par package_delivery.loRaGW.at forwardProtocolRegistration true
par package_delivery.loRaGW.tn typename "\"inet.common.MessageDispatcher\""
par package_delivery.loRaGW.tn displayStringTextFormat "\"processed %p pk (%l)\""
par package_delivery.loRaGW.tn forwardServiceRegistration true
par package_delivery.loRaGW.tn forwardProtocolRegistration true
par package_delivery.loRaGW.nl typename "\"inet.common.MessageDispatcher\""
par package_delivery.loRaGW.nl displayStringTextFormat "\"processed %p pk (%l)\""
par package_delivery.loRaGW.nl forwardServiceRegistration true
par package_delivery.loRaGW.nl forwardProtocolRegistration true
par package_delivery.loRaGW.cb typename "\"inet.common.MessageDispatcher\""
par package_delivery.loRaGW.cb displayStringTextFormat "\"processed %p pk (%l)\""
par package_delivery.loRaGW.cb forwardServiceRegistration true
par package_delivery.loRaGW.cb forwardProtocolRegistration true
par package_delivery.loRaGW.bl typename "\"inet.common.MessageDispatcher\""
par package_delivery.loRaGW.bl displayStringTextFormat "\"processed %p pk (%l)\""
par package_delivery.loRaGW.bl forwardServiceRegistration true
par package_delivery.loRaGW.bl forwardProtocolRegistration true
par package_delivery.loRaGW.li typename "\"inet.common.MessageDispatcher\""
par package_delivery.loRaGW.li displayStringTextFormat "\"processed %p pk (%l)\""
par package_delivery.loRaGW.li forwardServiceRegistration true
par package_delivery.loRaGW.li forwardProtocolRegistration true
par package_delivery.loRaGW.interfaceTable typename "\"inet.networklayer.common.InterfaceTable\""
par package_delivery.loRaGW.interfaceTable displayAddresses true
par package_delivery.loRaGW.mobility typename "\"inet.mobility.static.StationaryMobility\""
par package_delivery.loRaGW.mobility subjectModule "\"^\""
par package_delivery.loRaGW.mobility coordinateSystemModule "\"\""
par package_delivery.loRaGW.mobility displayStringTextFormat "\"p: %p\\nv: %v\""
attr mutable ""
par package_delivery.loRaGW.mobility updateDisplayString true
par package_delivery.loRaGW.mobility constraintAreaMinX 0m
attr unit m
par package_delivery.loRaGW.mobility constraintAreaMinY 0m
attr unit m
par package_delivery.loRaGW.mobility constraintAreaMinZ 0m
attr unit m
par package_delivery.loRaGW.mobility constraintAreaMaxX 1000m
attr unit m
par package_delivery.loRaGW.mobility constraintAreaMaxY 1000m
attr unit m
par package_delivery.loRaGW.mobility constraintAreaMaxZ 0m
attr unit m
par package_delivery.loRaGW.mobility initialX 546m
attr unit m
par package_delivery.loRaGW.mobility initialY 297m
attr unit m
par package_delivery.loRaGW.mobility initialZ 0m
attr unit m
par package_delivery.loRaGW.mobility initialLatitude "nan deg"
attr unit deg
par package_delivery.loRaGW.mobility initialLongitude "nan deg"
attr unit deg
par package_delivery.loRaGW.mobility initialAltitude 0m
attr unit m
par package_delivery.loRaGW.mobility initialHeading 0deg
attr unit deg
par package_delivery.loRaGW.mobility initialElevation 0deg
attr unit deg
par package_delivery.loRaGW.mobility initialBank 0deg
attr unit deg
par package_delivery.loRaGW.mobility initFromDisplayString false
par package_delivery.loRaGW.mobility updateFromDisplayString true
par package_delivery.loRaGW.LoRaGWNic.radioIn.channel typename "\"ned.IdealChannel\""
par package_delivery.loRaGW.LoRaGWNic.mac.upperLayerOut.channel typename "\"ned.IdealChannel\""
par package_delivery.loRaGW.LoRaGWNic.upperLayerIn.channel typename "\"ned.IdealChannel\""
par package_delivery.loRaGW.LoRaGWNic.mac typename "\"flora.LoRa.LoRaGWMac\""
par package_delivery.loRaGW.LoRaGWNic.mac interfaceTableModule "\"package_delivery.loRaGW.interfaceTable\""
par package_delivery.loRaGW.LoRaGWNic.mac radioModule "\"^.radio\""
par package_delivery.loRaGW.LoRaGWNic.mac address "\"0A-AA-00-00-00-01\""
attr mutable ""
par package_delivery.loRaGW.LoRaGWNic.mac queueModule "\"\""
par package_delivery.loRaGW.LoRaGWNic.mac maxQueueSize -1
par package_delivery.loRaGW.LoRaGWNic.mac prioritizeByUP false
par package_delivery.loRaGW.LoRaGWNic.mac useAck true
par package_delivery.loRaGW.LoRaGWNic.mac headerLength 8B
attr unit B
par package_delivery.loRaGW.LoRaGWNic.mac ackLength 8B
attr unit B
par package_delivery.loRaGW.LoRaGWNic.mac sifsTime 1e-05s
attr unit s
par package_delivery.loRaGW.LoRaGWNic.mac slotTime 2e-05s
attr unit s
par package_delivery.loRaGW.LoRaGWNic.mac difsTime 5e-05s
attr unit s
par package_delivery.loRaGW.LoRaGWNic.mac mtu 1500
par package_delivery.loRaGW.LoRaGWNic.mac cwMin 31
par package_delivery.loRaGW.LoRaGWNic.mac cwMax 1023
par package_delivery.loRaGW.LoRaGWNic.mac cwMulticast 31
par package_delivery.loRaGW.LoRaGWNic.mac retryLimit 7
scalar package_delivery.loRaGW.LoRaGWNic.mac GW_forwardedDown 0
scalar package_delivery.loRaGW.LoRaGWNic.mac GW_droppedDC 0
par package_delivery.loRaGW.LoRaGWNic.radio.antenna typename "\"inet.physicallayer.wireless.common.antenna.IsotropicAntenna\""
par package_delivery.loRaGW.LoRaGWNic.radio.antenna mobilityModule "\"^.^.^.mobility\""
par package_delivery.loRaGW.LoRaGWNic.radio.antenna numAntennas 1
par package_delivery.loRaGW.LoRaGWNic.radio.transmitter typename "\"flora.LoRaPhy.LoRaTransmitter\""
par package_delivery.loRaGW.LoRaGWNic.radio.transmitter preambleDuration 0.001s
attr unit s
par package_delivery.loRaGW.LoRaGWNic.radio.transmitter headerLength 0b
attr unit b
par package_delivery.loRaGW.LoRaGWNic.radio.transmitter bitrate 250000bps
attr unit bps
par package_delivery.loRaGW.LoRaGWNic.radio.transmitter power 0.00224W
attr unit W
par package_delivery.loRaGW.LoRaGWNic.radio.transmitter centerFrequency 2.45e+09Hz
attr unit Hz
par package_delivery.loRaGW.LoRaGWNic.radio.transmitter bandwidth 250000Hz
attr unit Hz
par package_delivery.loRaGW.LoRaGWNic.radio.transmitter modulation "\"LoRaModulation\""
scalar package_delivery.loRaGW.LoRaGWNic.radio.transmitter LoRaTransmissionCreated:count 0
attr recordingmode count
attr source LoRaTransmissionCreated
par package_delivery.loRaGW.LoRaGWNic.radio.receiver typename "\"flora.LoRaPhy.LoRaReceiver\""
par package_delivery.loRaGW.LoRaGWNic.radio.receiver snirThreshold -8dB
attr unit dB
par package_delivery.loRaGW.LoRaGWNic.radio.receiver snirThresholdMode "\"min\""
attr unit min,mean
par package_delivery.loRaGW.LoRaGWNic.radio.receiver energyDetection -110dBm
attr unit dBm
par package_delivery.loRaGW.LoRaGWNic.radio.receiver sensitivity -100dBm
attr unit dBm
par package_delivery.loRaGW.LoRaGWNic.radio.receiver centerFrequency 2.45e+09Hz
attr unit Hz
par package_delivery.loRaGW.LoRaGWNic.radio.receiver bandwidth 250000Hz
attr unit Hz
par package_delivery.loRaGW.LoRaGWNic.radio.receiver modulation "\"BPSK\""
par package_delivery.loRaGW.LoRaGWNic.radio.receiver alohaChannelModel false
scalar package_delivery.loRaGW.LoRaGWNic.radio.receiver numCollisions 0
scalar package_delivery.loRaGW.LoRaGWNic.radio.receiver rcvBelowSensitivity 0
scalar package_delivery.loRaGW.LoRaGWNic.radio.receiver LoRaReceptionCollision:count 0
attr recordingmode count
attr source LoRaReceptionCollision
par package_delivery.loRaGW.LoRaGWNic.radio typename "\"flora.LoRa.LoRaGWRadio\""
par package_delivery.loRaGW.LoRaGWNic.radio radioMediumModule "\"loRaMedium\""
par package_delivery.loRaGW.LoRaGWNic.radio energySourceModule "\"^.IdealEpEnergyStorage\""
par package_delivery.loRaGW.LoRaGWNic.radio initialRadioMode "\"off\""
attr enum off,sleep,receiver,transmitter,transceiver
par package_delivery.loRaGW.LoRaGWNic.radio switchingTimes "\"ms 0 0 0 0 0 0 0 0 0 0 0 0 0 0 0 0 0 0 0 0 0 0 0 0 0\""
par package_delivery.loRaGW.LoRaGWNic.radio sendRawBytes false
par package_delivery.loRaGW.LoRaGWNic.radio separateTransmissionParts false
par package_delivery.loRaGW.LoRaGWNic.radio separateReceptionParts false
par package_delivery.loRaGW.LoRaGWNic.radio displayCommunicationRange false
par package_delivery.loRaGW.LoRaGWNic.radio displayInterferenceRange false
par package_delivery.loRaGW.LoRaGWNic.radio centerFrequency 2.45e+09Hz
attr unit Hz
par package_delivery.loRaGW.LoRaGWNic.radio bandwidth 250000Hz
attr unit Hz
par package_delivery.loRaGW.LoRaGWNic.radio iAmGateway true
scalar package_delivery.loRaGW.LoRaGWNic.radio "DER - Data Extraction Rate" 1
scalar package_delivery.loRaGW.LoRaGWNic.radio LoRaGWRadioReceptionFinishedCorrect:count 1
attr recordingmode count
attr source LoRaGWRadioReceptionFinishedCorrect
scalar package_delivery.loRaGW.LoRaGWNic.radio LoRaGWRadioReceptionStarted:count 1
attr recordingmode count
attr source LoRaGWRadioReceptionStarted
scalar package_delivery.loRaGW.LoRaGWNic.radio radioMode:count 3
attr interpolationmode sample-hold
attr recordingmode count
attr source radioModeChanged
attr title "Radio mode, count"
scalar package_delivery.loRaGW.LoRaGWNic.radio receptionState:count 1
attr interpolationmode sample-hold
attr recordingmode count
attr source receptionStateChanged
attr title "Radio reception state, count"
scalar package_delivery.loRaGW.LoRaGWNic.radio transmissionState:count 1
attr interpolationmode sample-hold
attr recordingmode count
attr source transmissionStateChanged
attr title "Radio transmission state, count"
statistic package_delivery.loRaGW.LoRaGWNic.radio minSnir:histogram
field count 2
field mean 2.8279660075804
field stddev 0
field min 2.8279660075804
field max 2.8279660075804
field sum 5.6559320151609
field sqrsum 15.994783480061
attr recordingmode histogram
attr source minimumSnir(packetSentToUpper)
attr title "Min SNIR"
bin	-inf	0
bin	2.32	0
bin	2.34	0
bin	2.36	0
bin	2.38	0
bin	2.4	0
bin	2.42	0
bin	2.44	0
bin	2.46	0
bin	2.48	0
bin	2.5	0
bin	2.52	0
bin	2.54	0
bin	2.56	0
bin	2.58	0
bin	2.6	0
bin	2.62	0
bin	2.64	0
bin	2.66	0
bin	2.68	0
bin	2.7	0
bin	2.72	0
bin	2.74	0
bin	2.76	0
bin	2.78	0
bin	2.8	0
bin	2.82	2
bin	2.84	0
bin	2.86	0
bin	2.88	0
bin	2.9	0
bin	2.92	0
bin	2.94	0
bin	2.96	0
bin	2.98	0
bin	3	0
bin	3.02	0
bin	3.04	0
bin	3.06	0
bin	3.08	0
bin	3.1	0
bin	3.12	0
bin	3.14	0
bin	3.16	0
bin	3.18	0
bin	3.2	0
bin	3.22	0
bin	3.24	0
bin	3.26	0
bin	3.28	0
bin	3.3	0
bin	3.32	0
bin	3.34	0
statistic package_delivery.loRaGW.LoRaGWNic.radio packetErrorRate:histogram
field count 2
field mean 0
field stddev 0
field min 0
field max 0
field sum 0
field sqrsum 0
attr recordingmode histogram
attr source packetErrorRate(packetSentToUpper)
attr title "Packet error rate"
bin	-inf	0
bin	-0.5	0
bin	-0.48	0
bin	-0.46	0
bin	-0.44	0
bin	-0.42	0
bin	-0.4	0
bin	-0.38	0
bin	-0.36	0
bin	-0.34	0
bin	-0.32	0
bin	-0.3	0
bin	-0.28	0
bin	-0.26	0
bin	-0.24	0
bin	-0.22	0
bin	-0.2	0
bin	-0.18	0
bin	-0.16	0
bin	-0.14	0
bin	-0.12	0
bin	-0.1	0
bin	-0.08	0
bin	-0.06	0
bin	-0.04	0
bin	-0.02	0
bin	0	2
bin	0.02	0
bin	0.04	0
bin	0.06	0
bin	0.08	0
bin	0.1	0
bin	0.12	0
bin	0.14	0
bin	0.16	0
bin	0.18	0
bin	0.2	0
bin	0.22	0
bin	0.24	0
bin	0.26	0
bin	0.28	0
bin	0.3	0
bin	0.32	0
bin	0.34	0
bin	0.36	0
bin	0.38	0
bin	0.4	0
bin	0.42	0
bin	0.44	0
bin	0.46	0
bin	0.48	0
bin	0.5	0
statistic package_delivery.loRaGW.LoRaGWNic.radio bitErrorRate:histogram
field count 2
field mean 0
field stddev 0
field min 0
field max 0
field sum 0
field sqrsum 0
attr recordingmode histogram
attr source bitErrorRate(packetSentToUpper)
attr title "Bit error rate"
bin	-inf	0
bin	-0.5	0
bin	-0.48	0
bin	-0.46	0
bin	-0.44	0
bin	-0.42	0
bin	-0.4	0
bin	-0.38	0
bin	-0.36	0
bin	-0.34	0
bin	-0.32	0
bin	-0.3	0
bin	-0.28	0
bin	-0.26	0
bin	-0.24	0
bin	-0.22	0
bin	-0.2	0
bin	-0.18	0
bin	-0.16	0
bin	-0.14	0
bin	-0.12	0
bin	-0.1	0
bin	-0.08	0
bin	-0.06	0
bin	-0.04	0
bin	-0.02	0
bin	0	2
bin	0.02	0
bin	0.04	0
bin	0.06	0
bin	0.08	0
bin	0.1	0
bin	0.12	0
bin	0.14	0
bin	0.16	0
bin	0.18	0
bin	0.2	0
bin	0.22	0
bin	0.24	0
bin	0.26	0
bin	0.28	0
bin	0.3	0
bin	0.32	0
bin	0.34	0
bin	0.36	0
bin	0.38	0
bin	0.4	0
bin	0.42	0
bin	0.44	0
bin	0.46	0
bin	0.48	0
bin	0.5	0
statistic package_delivery.loRaGW.LoRaGWNic.radio symbolErrorRate:histogram
field count 2
field mean 0
field stddev 0
field min 0
field max 0
field sum 0
field sqrsum 0
attr recordingmode histogram
attr source symbolErrorRate(packetSentToUpper)
attr title "Symbol error rate"
bin	-inf	0
bin	-0.5	0
bin	-0.48	0
bin	-0.46	0
bin	-0.44	0
bin	-0.42	0
bin	-0.4	0
bin	-0.38	0
bin	-0.36	0
bin	-0.34	0
bin	-0.32	0
bin	-0.3	0
bin	-0.28	0
bin	-0.26	0
bin	-0.24	0
bin	-0.22	0
bin	-0.2	0
bin	-0.18	0
bin	-0.16	0
bin	-0.14	0
bin	-0.12	0
bin	-0.1	0
bin	-0.08	0
bin	-0.06	0
bin	-0.04	0
bin	-0.02	0
bin	0	2
bin	0.02	0
bin	0.04	0
bin	0.06	0
bin	0.08	0
bin	0.1	0
bin	0.12	0
bin	0.14	0
bin	0.16	0
bin	0.18	0
bin	0.2	0
bin	0.22	0
bin	0.24	0
bin	0.26	0
bin	0.28	0
bin	0.3	0
bin	0.32	0
bin	0.34	0
bin	0.36	0
bin	0.38	0
bin	0.4	0
bin	0.42	0
bin	0.44	0
bin	0.46	0
bin	0.48	0
bin	0.5	0
par package_delivery.loRaGW.LoRaGWNic typename "\"flora.LoRa.LoRaGWNic\""
par package_delivery.loRaGW.LoRaGWNic displayStringTextFormat "\"%a (%i)\\n%m\""
par package_delivery.loRaGW.LoRaGWNic recordPcap false
par package_delivery.loRaGW.LoRaGWNic numPcapRecorders 0
par package_delivery.loRaGW.LoRaGWNic interfaceTableModule "\"package_delivery.loRaGW.interfaceTable\""
par package_delivery.loRaGW.LoRaGWNic energySourceModule "\"^.IdealEpEnergyStorage\""
par package_delivery.loRaGW.LoRaGWNic protocol "\"\""
scalar package_delivery.loRaGW.LoRaGWNic packetDropInterfaceDown:count 0
attr interpolationmode none
attr recordingmode count
attr source packetDropReasonIsInterfaceDown(packetDropped)
attr title "packet drops: interface down, count"
scalar package_delivery.loRaGW.LoRaGWNic packetDropInterfaceDown:sum(packetBytes) 0
attr interpolationmode none
attr recordingmode sum(packetBytes)
attr source packetDropReasonIsInterfaceDown(packetDropped)
attr title "packet drops: interface down, sum(packetBytes)"
scalar package_delivery.loRaGW.LoRaGWNic packetDropNoCarrier:count 0
attr interpolationmode none
attr recordingmode count
attr source packetDropReasonIsNoCarrier(packetDropped)
attr title "packet drops: no carrier, count"
scalar package_delivery.loRaGW.LoRaGWNic packetDropNoCarrier:sum(packetBytes) 0
attr interpolationmode none
attr recordingmode sum(packetBytes)
attr source packetDropReasonIsNoCarrier(packetDropped)
attr title "packet drops: no carrier, sum(packetBytes)"
par package_delivery.loRaGW.packetForwarder typename "\"flora.LoRa.PacketForwarder\""
par package_delivery.loRaGW.packetForwarder localPort 2000
par package_delivery.loRaGW.packetForwarder destAddresses "\"server\""
par package_delivery.loRaGW.packetForwarder localAddress "\"\""
par package_delivery.loRaGW.packetForwarder destPort 1000
scalar package_delivery.loRaGW.packetForwarder LoRa_GW_DER 1
scalar package_delivery.loRaGW.packetForwarder LoRa_GWPacketReceived:count 1
attr recordingmode count
attr source LoRa_GWPacketReceived
par package_delivery.loRaGW.eth[0].mac.phys$o.channel typename "\"ned.IdealChannel\""
par package_delivery.loRaGW.eth[0].phys$i.channel typename "\"ned.IdealChannel\""
par package_delivery.loRaGW.eth[0].upperLayerIn.channel typename "\"ned.IdealChannel\""
par package_delivery.loRaGW.eth[0].mac.upperLayerOut.channel typename "\"ned.IdealChannel\""
par package_delivery.loRaGW.eth[0].queue typename "\"inet.linklayer.ethernet.common.EthernetQueue\""
par package_delivery.loRaGW.eth[0].queue displayStringTextFormat "\"contains %p pk (%l) pushed %u\\npulled %o removed %r dropped %d\""
par package_delivery.loRaGW.eth[0].queue packetCapacity 1000
par package_delivery.loRaGW.eth[0].queue dataCapacity -1b
attr unit b
par package_delivery.loRaGW.eth[0].queue dropperClass "\"inet::queueing::PacketAtCollectionEndDropper\""
par package_delivery.loRaGW.eth[0].queue comparatorClass "\"inet::EthernetFrameTypeComparator\""
par package_delivery.loRaGW.eth[0].queue bufferModule "\"\""
scalar package_delivery.loRaGW.eth[0].queue queueLength:last 0
attr autoWarmupFilter false
attr interpolationmode sample-hold
attr recordingmode last
attr source "warmup(atomic(constant0(packetPushEnded) + count(packetPushStarted) - count(packetPulled) - count(packetRemoved) - count(packetDropped)))"
attr title "queue length, last"
attr unit pk
scalar package_delivery.loRaGW.eth[0].queue queueLength:max 0
attr autoWarmupFilter false
attr interpolationmode sample-hold
attr recordingmode max
attr source "warmup(atomic(constant0(packetPushEnded) + count(packetPushStarted) - count(packetPulled) - count(packetRemoved) - count(packetDropped)))"
attr title "queue length, max"
attr unit pk
scalar package_delivery.loRaGW.eth[0].queue queueLength:timeavg 0
attr autoWarmupFilter false
attr interpolationmode sample-hold
attr recordingmode timeavg
attr source "warmup(atomic(constant0(packetPushEnded) + count(packetPushStarted) - count(packetPulled) - count(packetRemoved) - count(packetDropped)))"
attr title "queue length, timeavg"
attr unit pk
scalar package_delivery.loRaGW.eth[0].queue queueBitLength:last 0
attr autoWarmupFilter false
attr interpolationmode sample-hold
attr recordingmode last
attr source "warmup(atomic(constant0(packetPushEnded) + sum(packetLength(packetPushStarted)) - sum(packetLength(packetPulled)) - sum(packetLength(packetRemoved)) - sum(packetLength(packetDropped))))"
attr title "queue bit length, last"
attr unit b
scalar package_delivery.loRaGW.eth[0].queue queueBitLength:max 0
attr autoWarmupFilter false
attr interpolationmode sample-hold
attr recordingmode max
attr source "warmup(atomic(constant0(packetPushEnded) + sum(packetLength(packetPushStarted)) - sum(packetLength(packetPulled)) - sum(packetLength(packetRemoved)) - sum(packetLength(packetDropped))))"
attr title "queue bit length, max"
attr unit b
scalar package_delivery.loRaGW.eth[0].queue queueBitLength:timeavg 0
attr autoWarmupFilter false
attr interpolationmode sample-hold
attr recordingmode timeavg
attr source "warmup(atomic(constant0(packetPushEnded) + sum(packetLength(packetPushStarted)) - sum(packetLength(packetPulled)) - sum(packetLength(packetRemoved)) - sum(packetLength(packetDropped))))"
attr title "queue bit length, timeavg"
attr unit b
statistic package_delivery.loRaGW.eth[0].queue queueingTime:histogram
field count 2
field mean 0
field stddev 0
field min 0
field max 0
field sum 0
field sqrsum 0
attr interpolationmode none
attr recordingmode histogram
attr source queueingTime(packetPulled)
attr title "queueing times"
attr unit s
bin	-inf	0
bin	-0.5	0
bin	-0.48	0
bin	-0.46	0
bin	-0.44	0
bin	-0.42	0
bin	-0.4	0
bin	-0.38	0
bin	-0.36	0
bin	-0.34	0
bin	-0.32	0
bin	-0.3	0
bin	-0.28	0
bin	-0.26	0
bin	-0.24	0
bin	-0.22	0
bin	-0.2	0
bin	-0.18	0
bin	-0.16	0
bin	-0.14	0
bin	-0.12	0
bin	-0.1	0
bin	-0.08	0
bin	-0.06	0
bin	-0.04	0
bin	-0.02	0
bin	0	2
bin	0.02	0
bin	0.04	0
bin	0.06	0
bin	0.08	0
bin	0.1	0
bin	0.12	0
bin	0.14	0
bin	0.16	0
bin	0.18	0
bin	0.2	0
bin	0.22	0
bin	0.24	0
bin	0.26	0
bin	0.28	0
bin	0.3	0
bin	0.32	0
bin	0.34	0
bin	0.36	0
bin	0.38	0
bin	0.4	0
bin	0.42	0
bin	0.44	0
bin	0.46	0
bin	0.48	0
bin	0.5	0
scalar package_delivery.loRaGW.eth[0].queue outgoingPackets:count 2
attr recordingmode count
attr source packetPulled
attr title "outgoing packets, count"
attr unit pk
scalar package_delivery.loRaGW.eth[0].queue outgoingPacketLengths:sum 952
attr interpolationmode none
attr recordingmode sum
attr source packetLength(packetPulled)
attr title "outgoing packet lengths, sum"
attr unit b
statistic package_delivery.loRaGW.eth[0].queue outgoingPacketLengths:histogram
field count 2
field mean 476
field stddev 152.73506473629
field min 368
field max 584
field sum 952
field sqrsum 476480
attr interpolationmode none
attr recordingmode histogram
attr source packetLength(packetPulled)
attr title "outgoing packet lengths"
attr unit b
bin	-inf	0
bin	310	0
bin	315	0
bin	320	0
bin	325	0
bin	330	0
bin	335	0
bin	340	0
bin	345	0
bin	350	0
bin	355	0
bin	360	0
bin	365	1
bin	370	0
bin	375	0
bin	380	0
bin	385	0
bin	390	0
bin	395	0
bin	400	0
bin	405	0
bin	410	0
bin	415	0
bin	420	0
bin	425	0
bin	430	0
bin	435	0
bin	440	0
bin	445	0
bin	450	0
bin	455	0
bin	460	0
bin	465	0
bin	470	0
bin	475	0
bin	480	0
bin	485	0
bin	490	0
bin	495	0
bin	500	0
bin	505	0
bin	510	0
bin	515	0
bin	520	0
bin	525	0
bin	530	0
bin	535	0
bin	540	0
bin	545	0
bin	550	0
bin	555	0
bin	560	0
bin	565	0
bin	570	0
bin	575	0
bin	580	1
bin	585	0
bin	590	0
bin	595	0
bin	600	0
bin	605	0
bin	610	0
bin	615	0
bin	620	0
bin	625	0
bin	630	0
bin	635	0
bin	640	0
statistic package_delivery.loRaGW.eth[0].queue flowQueueingTime:histogram
field count 0
field mean -nan
field stddev -nan
field min -nan
field max -nan
field sum 0
field sqrsum 0
attr interpolationmode none
attr recordingmode histogram
attr source queueingTime(demuxFlow(packetPulled))
attr title "flow queueing times"
attr unit s
bin	-inf	0
bin	0	0
bin	1	0
scalar package_delivery.loRaGW.eth[0].queue incomingPackets:count 2
attr recordingmode count
attr source packetPushStarted
attr title "incoming packets, count"
attr unit pk
scalar package_delivery.loRaGW.eth[0].queue incomingPacketLengths:sum 952
attr interpolationmode none
attr recordingmode sum
attr source packetLength(packetPushStarted)
attr title "incoming packet lengths, sum"
attr unit b
statistic package_delivery.loRaGW.eth[0].queue incomingPacketLengths:histogram
field count 2
field mean 476
field stddev 152.73506473629
field min 368
field max 584
field sum 952
field sqrsum 476480
attr interpolationmode none
attr recordingmode histogram
attr source packetLength(packetPushStarted)
attr title "incoming packet lengths"
attr unit b
bin	-inf	0
bin	310	0
bin	315	0
bin	320	0
bin	325	0
bin	330	0
bin	335	0
bin	340	0
bin	345	0
bin	350	0
bin	355	0
bin	360	0
bin	365	1
bin	370	0
bin	375	0
bin	380	0
bin	385	0
bin	390	0
bin	395	0
bin	400	0
bin	405	0
bin	410	0
bin	415	0
bin	420	0
bin	425	0
bin	430	0
bin	435	0
bin	440	0
bin	445	0
bin	450	0
bin	455	0
bin	460	0
bin	465	0
bin	470	0
bin	475	0
bin	480	0
bin	485	0
bin	490	0
bin	495	0
bin	500	0
bin	505	0
bin	510	0
bin	515	0
bin	520	0
bin	525	0
bin	530	0
bin	535	0
bin	540	0
bin	545	0
bin	550	0
bin	555	0
bin	560	0
bin	565	0
bin	570	0
bin	575	0
bin	580	1
bin	585	0
bin	590	0
bin	595	0
bin	600	0
bin	605	0
bin	610	0
bin	615	0
bin	620	0
bin	625	0
bin	630	0
bin	635	0
bin	640	0
scalar package_delivery.loRaGW.eth[0].queue droppedPacketsQueueOverflow:count 0
attr interpolationmode none
attr recordingmode count
attr source packetDropReasonIsQueueOverflow(packetDropped)
attr title "dropped packets: queue overflow, count"
attr unit pk
scalar package_delivery.loRaGW.eth[0].queue droppedPacketLengthsQueueOverflow:sum 0
attr interpolationmode none
attr recordingmode sum
attr source packetLength(packetDropReasonIsQueueOverflow(packetDropped))
attr title "dropped packet lengths: queue overflow, sum"
attr unit b
par package_delivery.loRaGW.eth[0].mac typename "\"inet.linklayer.ethernet.basic.EthernetMac\""
par package_delivery.loRaGW.eth[0].mac interfaceTableModule "\"package_delivery.loRaGW.interfaceTable\""
par package_delivery.loRaGW.eth[0].mac displayStringTextFormat "\"rate: %b\\nsent: %s, rcvd: %r\\nqueue: %q, drop: %d\""
par package_delivery.loRaGW.eth[0].mac sendRawBytes false
par package_delivery.loRaGW.eth[0].mac promiscuous false
par package_delivery.loRaGW.eth[0].mac duplexMode true
par package_delivery.loRaGW.eth[0].mac mtu 1500B
attr unit B
par package_delivery.loRaGW.eth[0].mac fcsMode "\"declared\""
attr enum declared,computed
par package_delivery.loRaGW.eth[0].mac stopOperationExtraTime -1s
attr unit s
par package_delivery.loRaGW.eth[0].mac stopOperationTimeout 2s
attr unit s
scalar package_delivery.loRaGW.eth[0].mac "simulated time" 936.71213288089
scalar package_delivery.loRaGW.eth[0].mac full-duplex 1
scalar package_delivery.loRaGW.eth[0].mac "frames/sec sent" 0.0021351276766843
scalar package_delivery.loRaGW.eth[0].mac "frames/sec rcvd" 0.0010675638383422
scalar package_delivery.loRaGW.eth[0].mac "bits/sec sent" 1.170049966823
scalar package_delivery.loRaGW.eth[0].mac "bits/sec rcvd" 0.54659268523119
scalar package_delivery.loRaGW.eth[0].mac "rx channel idle (%)" 99.999999938508
scalar package_delivery.loRaGW.eth[0].mac "rx channel utilization (%)" 6.1491677088509e-08
scalar package_delivery.loRaGW.eth[0].mac rxPausePkUnits:count 0
attr interpolationmode none
attr recordingmode count
attr title "pause units received, count"
scalar package_delivery.loRaGW.eth[0].mac rxPausePkUnits:sum 0
attr interpolationmode none
attr recordingmode sum
attr title "pause units received, sum"
scalar package_delivery.loRaGW.eth[0].mac txPausePkUnits:count 0
attr interpolationmode none
attr recordingmode count
attr title "pause units sent, count"
scalar package_delivery.loRaGW.eth[0].mac txPausePkUnits:sum 0
attr interpolationmode none
attr recordingmode sum
attr title "pause units sent, sum"
scalar package_delivery.loRaGW.eth[0].mac rxPkOk:count 1
attr interpolationmode none
attr recordingmode count
attr source rxPkOk
attr title "packets received OK, count"
scalar package_delivery.loRaGW.eth[0].mac rxPkOk:sum(packetBytes) 64
attr interpolationmode none
attr recordingmode sum(packetBytes)
attr source rxPkOk
attr title "packets received OK, sum(packetBytes)"
scalar package_delivery.loRaGW.eth[0].mac txPk:count 2
attr interpolationmode none
attr recordingmode count
attr source packetSentToLower
attr title "packets transmitted, count"
scalar package_delivery.loRaGW.eth[0].mac txPk:sum(packetBytes) 137
attr interpolationmode none
attr recordingmode sum(packetBytes)
attr source packetSentToLower
attr title "packets transmitted, sum(packetBytes)"
scalar package_delivery.loRaGW.eth[0].mac packetReceivedFromUpper:count 2
attr interpolationmode none
attr recordingmode count
attr source packetReceivedFromUpper
attr title "packet bytes from higher layer, count"
scalar package_delivery.loRaGW.eth[0].mac packetReceivedFromUpper:sum(packetBytes) 119
attr interpolationmode none
attr recordingmode sum(packetBytes)
attr source packetReceivedFromUpper
attr title "packet bytes from higher layer, sum(packetBytes)"
scalar package_delivery.loRaGW.eth[0].mac passedUpPk:count 1
attr interpolationmode none
attr recordingmode count
attr source packetSentToUpper
attr title "packets passed to higher layer, count"
scalar package_delivery.loRaGW.eth[0].mac passedUpPk:sum(packetBytes) 64
attr interpolationmode none
attr recordingmode sum(packetBytes)
attr source packetSentToUpper
attr title "packets passed to higher layer, sum(packetBytes)"
scalar package_delivery.loRaGW.eth[0].mac packetDropIncorrectlyReceived:count 0
attr interpolationmode none
attr recordingmode count
attr source packetDropReasonIsIncorrectlyReceived(packetDropped)
attr title "packet drop: incorrectly received, count"
scalar package_delivery.loRaGW.eth[0].mac packetDropIncorrectlyReceived:sum(packetBytes) 0
attr interpolationmode none
attr recordingmode sum(packetBytes)
attr source packetDropReasonIsIncorrectlyReceived(packetDropped)
attr title "packet drop: incorrectly received, sum(packetBytes)"
scalar package_delivery.loRaGW.eth[0].mac packetDropInterfaceDown:count 0
attr interpolationmode none
attr recordingmode count
attr source packetDropReasonIsInterfaceDown(packetDropped)
attr title "packet drop: interface down, count"
scalar package_delivery.loRaGW.eth[0].mac packetDropInterfaceDown:sum(packetBytes) 0
attr interpolationmode none
attr recordingmode sum(packetBytes)
attr source packetDropReasonIsInterfaceDown(packetDropped)
attr title "packet drop: interface down, sum(packetBytes)"
scalar package_delivery.loRaGW.eth[0].mac packetDropNotAddressedToUs:count 0
attr interpolationmode none
attr recordingmode count
attr source packetDropReasonIsNotAddressedToUs(packetDropped)
attr title "packet drop: not addressed to us, count"
scalar package_delivery.loRaGW.eth[0].mac packetDropNotAddressedToUs:sum(packetBytes) 0
attr interpolationmode none
attr recordingmode sum(packetBytes)
attr source packetDropReasonIsNotAddressedToUs(packetDropped)
attr title "packet drop: not addressed to us, sum(packetBytes)"
par package_delivery.loRaGW.eth[0] typename "\"inet.linklayer.ethernet.EthernetInterface\""
par package_delivery.loRaGW.eth[0] displayStringTextFormat "\"%a (%i)\\n%m\""
par package_delivery.loRaGW.eth[0] recordPcap false
par package_delivery.loRaGW.eth[0] numPcapRecorders 0
par package_delivery.loRaGW.eth[0] interfaceTableModule "\"package_delivery.loRaGW.interfaceTable\""
par package_delivery.loRaGW.eth[0] protocol "\"ethernetmac\""
par package_delivery.loRaGW.eth[0] address "\"0A-AA-00-00-00-06\""
attr mutable ""
par package_delivery.loRaGW.eth[0] duplexMode true
par package_delivery.loRaGW.eth[0] csmacdSupport false
par package_delivery.loRaGW.eth[0] bitrate 0bps
attr unit bps
par package_delivery.loRaGW.eth[0] fcsMode "\"declared\""
attr enum declared,computed
scalar package_delivery.loRaGW.eth[0] packetDropInterfaceDown:count 0
attr interpolationmode none
attr recordingmode count
attr source packetDropReasonIsInterfaceDown(packetDropped)
attr title "packet drops: interface down, count"
scalar package_delivery.loRaGW.eth[0] packetDropInterfaceDown:sum(packetBytes) 0
attr interpolationmode none
attr recordingmode sum(packetBytes)
attr source packetDropReasonIsInterfaceDown(packetDropped)
attr title "packet drops: interface down, sum(packetBytes)"
scalar package_delivery.loRaGW.eth[0] packetDropNoCarrier:count 0
attr interpolationmode none
attr recordingmode count
attr source packetDropReasonIsNoCarrier(packetDropped)
attr title "packet drops: no carrier, count"
scalar package_delivery.loRaGW.eth[0] packetDropNoCarrier:sum(packetBytes) 0
attr interpolationmode none
attr recordingmode sum(packetBytes)
attr source packetDropReasonIsNoCarrier(packetDropped)
attr title "packet drops: no carrier, sum(packetBytes)"
par package_delivery.loRaGW.udp typename "\"inet.transportlayer.udp.Udp\""
par package_delivery.loRaGW.udp interfaceTableModule "\"package_delivery.loRaGW.interfaceTable\""
par package_delivery.loRaGW.udp icmpModule "\"^.ipv4.icmp\""
par package_delivery.loRaGW.udp icmpv6Module "\"^.ipv6.icmpv6\""
par package_delivery.loRaGW.udp crcMode "\"declared\""
attr enum disabled,declared,computed
par package_delivery.loRaGW.udp defaultMulticastLoop true
scalar package_delivery.loRaGW.udp packetReceived:count 0
attr interpolationmode none
attr recordingmode count
attr source packetReceived
attr title "packets received, count"
scalar package_delivery.loRaGW.udp packetReceived:sum(packetBytes) 0
attr interpolationmode none
attr recordingmode sum(packetBytes)
attr source packetReceived
attr title "packets received, sum(packetBytes)"
scalar package_delivery.loRaGW.udp packetSent:count 1
attr interpolationmode none
attr recordingmode count
attr source packetSent
attr title "packets sent, count"
scalar package_delivery.loRaGW.udp packetSent:sum(packetBytes) 35
attr interpolationmode none
attr recordingmode sum(packetBytes)
attr source packetSent
attr title "packets sent, sum(packetBytes)"
scalar package_delivery.loRaGW.udp passedUpPk:count 0
attr interpolationmode none
attr recordingmode count
attr source packetSentToUpper
attr title "packets passed up, count"
scalar package_delivery.loRaGW.udp droppedPkWrongPort:count 0
attr interpolationmode none
attr recordingmode count
attr source packetDropReasonIsNoPortFound(packetDropped)
attr title "packets dropped (wrong port), count"
scalar package_delivery.loRaGW.udp droppedPkBadChecksum:count 0
attr interpolationmode none
attr recordingmode count
attr source packetDropReasonIsIncorrectlyReceived(packetDropped)
attr title "packets dropped (checksum error), count"
par package_delivery.loRaGW.ipv4.transportIn.channel typename "\"ned.IdealChannel\""
par package_delivery.loRaGW.ipv4.up.out[0].channel typename "\"ned.IdealChannel\""
par package_delivery.loRaGW.ipv4.lp.out[2].channel typename "\"ned.IdealChannel\""
par package_delivery.loRaGW.ipv4.ifIn.channel typename "\"ned.IdealChannel\""
par package_delivery.loRaGW.ipv4.configurator typename "\"inet.networklayer.configurator.ipv4.Ipv4NodeConfigurator\""
par package_delivery.loRaGW.ipv4.configurator interfaceTableModule "\"package_delivery.loRaGW.interfaceTable\""
par package_delivery.loRaGW.ipv4.configurator routingTableModule "\"package_delivery.loRaGW.ipv4.routingTable\""
par package_delivery.loRaGW.ipv4.configurator networkConfiguratorModule "\"configurator\""
par package_delivery.loRaGW.ipv4.configurator configureRoutingTable true
par package_delivery.loRaGW.ipv4.routingTable typename "\"inet.networklayer.ipv4.Ipv4RoutingTable\""
par package_delivery.loRaGW.ipv4.routingTable interfaceTableModule "\"package_delivery.loRaGW.interfaceTable\""
par package_delivery.loRaGW.ipv4.routingTable routerId "\"auto\""
par package_delivery.loRaGW.ipv4.routingTable netmaskRoutes "\"*\""
par package_delivery.loRaGW.ipv4.routingTable forwarding false
par package_delivery.loRaGW.ipv4.routingTable multicastForwarding false
par package_delivery.loRaGW.ipv4.routingTable useAdminDist false
par package_delivery.loRaGW.ipv4.routingTable routingFile "\"\""
par package_delivery.loRaGW.ipv4.natTable typename "\"inet.networklayer.ipv4.Ipv4NatTable\""
par package_delivery.loRaGW.ipv4.natTable networkProtocolModule "\"^.ip\""
par package_delivery.loRaGW.ipv4.natTable config "<config/> at content:1"
par package_delivery.loRaGW.ipv4.up typename "\"inet.common.MessageDispatcher\""
par package_delivery.loRaGW.ipv4.up displayStringTextFormat "\"processed %p pk (%l)\""
par package_delivery.loRaGW.ipv4.up forwardServiceRegistration true
par package_delivery.loRaGW.ipv4.up forwardProtocolRegistration true
par package_delivery.loRaGW.ipv4.igmp typename "\"inet.networklayer.ipv4.Igmpv2\""
par package_delivery.loRaGW.ipv4.igmp interfaceTableModule "\"package_delivery.loRaGW.interfaceTable\""
par package_delivery.loRaGW.ipv4.igmp routingTableModule "\"package_delivery.loRaGW.ipv4.routingTable\""
par package_delivery.loRaGW.ipv4.igmp crcMode "\"declared\""
attr enum declared,computed
par package_delivery.loRaGW.ipv4.igmp enabled true
par package_delivery.loRaGW.ipv4.igmp robustnessVariable 2
par package_delivery.loRaGW.ipv4.igmp queryInterval 125s
attr unit s
par package_delivery.loRaGW.ipv4.igmp queryResponseInterval 10s
attr unit s
par package_delivery.loRaGW.ipv4.igmp groupMembershipInterval 260s
attr unit s
par package_delivery.loRaGW.ipv4.igmp otherQuerierPresentInterval 255s
attr unit s
par package_delivery.loRaGW.ipv4.igmp startupQueryInterval 31.25s
attr unit s
par package_delivery.loRaGW.ipv4.igmp startupQueryCount 2
par package_delivery.loRaGW.ipv4.igmp lastMemberQueryInterval 1s
attr unit s
par package_delivery.loRaGW.ipv4.igmp lastMemberQueryCount 2
par package_delivery.loRaGW.ipv4.igmp unsolicitedReportInterval 10s
attr unit s
par package_delivery.loRaGW.ipv4.icmp typename "\"inet.networklayer.ipv4.Icmp\""
par package_delivery.loRaGW.ipv4.icmp interfaceTableModule "\"package_delivery.loRaGW.interfaceTable\""
par package_delivery.loRaGW.ipv4.icmp routingTableModule "\"package_delivery.loRaGW.ipv4.routingTable\""
par package_delivery.loRaGW.ipv4.icmp crcMode "\"declared\""
attr enum declared,computed
attr mutable ""
par package_delivery.loRaGW.ipv4.icmp quoteLength 8B
attr mutable ""
attr unit B
par package_delivery.loRaGW.ipv4.mp typename "\"inet.common.MessageDispatcher\""
par package_delivery.loRaGW.ipv4.mp displayStringTextFormat "\"processed %p pk (%l)\""
par package_delivery.loRaGW.ipv4.mp forwardServiceRegistration true
par package_delivery.loRaGW.ipv4.mp forwardProtocolRegistration true
par package_delivery.loRaGW.ipv4.ip typename "\"inet.networklayer.ipv4.Ipv4\""
par package_delivery.loRaGW.ipv4.ip interfaceTableModule "\"package_delivery.loRaGW.interfaceTable\""
par package_delivery.loRaGW.ipv4.ip routingTableModule "\"package_delivery.loRaGW.ipv4.routingTable\""
par package_delivery.loRaGW.ipv4.ip arpModule "\"package_delivery.loRaGW.ipv4.arp\""
par package_delivery.loRaGW.ipv4.ip icmpModule "\"package_delivery.loRaGW.ipv4.icmp\""
par package_delivery.loRaGW.ipv4.ip crcMode "\"declared\""
attr enum declared,computed
par package_delivery.loRaGW.ipv4.ip timeToLive 32
par package_delivery.loRaGW.ipv4.ip multicastTimeToLive 32
par package_delivery.loRaGW.ipv4.ip fragmentTimeout 60s
attr unit s
par package_delivery.loRaGW.ipv4.ip limitedBroadcast false
par package_delivery.loRaGW.ipv4.ip directBroadcastInterfaces "\"\""
scalar package_delivery.loRaGW.ipv4.ip packetDropAddressResolutionFailed:count 0
attr interpolationmode none
attr recordingmode count
attr source packetDropReasonIsAddressResolutionFailed(packetDropped)
attr title "packet drop: address resolution failed, count"
scalar package_delivery.loRaGW.ipv4.ip packetDropAddressResolutionFailed:sum(packetBytes) 0
attr interpolationmode none
attr recordingmode sum(packetBytes)
attr source packetDropReasonIsAddressResolutionFailed(packetDropped)
attr title "packet drop: address resolution failed, sum(packetBytes)"
scalar package_delivery.loRaGW.ipv4.ip packetDropHopLimitReached:count 0
attr interpolationmode none
attr recordingmode count
attr source packetDropReasonIsHopLimitReached(packetDropped)
attr title "packet drop: hop limit reached, count"
scalar package_delivery.loRaGW.ipv4.ip packetDropHopLimitReached:sum(packetBytes) 0
attr interpolationmode none
attr recordingmode sum(packetBytes)
attr source packetDropReasonIsHopLimitReached(packetDropped)
attr title "packet drop: hop limit reached, sum(packetBytes)"
scalar package_delivery.loRaGW.ipv4.ip packetDropForwardingDisabled:count 0
attr interpolationmode none
attr recordingmode count
attr source packetDropReasonIsForwardingDisabled(packetDropped)
attr title "packet drop: forwarding disabled, count"
scalar package_delivery.loRaGW.ipv4.ip packetDropForwardingDisabled:sum(packetBytes) 0
attr interpolationmode none
attr recordingmode sum(packetBytes)
attr source packetDropReasonIsForwardingDisabled(packetDropped)
attr title "packet drop: forwarding disabled, sum(packetBytes)"
scalar package_delivery.loRaGW.ipv4.ip packetDropNoInterfaceFound:count 0
attr interpolationmode none
attr recordingmode count
attr source packetDropReasonIsNoInterfaceFound(packetDropped)
attr title "packet drop: no interface found, count"
scalar package_delivery.loRaGW.ipv4.ip packetDropNoInterfaceFound:sum(packetBytes) 0
attr interpolationmode none
attr recordingmode sum(packetBytes)
attr source packetDropReasonIsNoInterfaceFound(packetDropped)
attr title "packet drop: no interface found, sum(packetBytes)"
scalar package_delivery.loRaGW.ipv4.ip packetDropNoRouteFound:count 0
attr interpolationmode none
attr recordingmode count
attr source packetDropReasonIsNoRouteFound(packetDropped)
attr title "packet drop: no route found, count"
scalar package_delivery.loRaGW.ipv4.ip packetDropNoRouteFound:sum(packetBytes) 0
attr interpolationmode none
attr recordingmode sum(packetBytes)
attr source packetDropReasonIsNoRouteFound(packetDropped)
attr title "packet drop: no route found, sum(packetBytes)"
scalar package_delivery.loRaGW.ipv4.ip packetDropUndefined:count 0
attr interpolationmode none
attr recordingmode count
attr source packetDropReasonIsUndefined(packetDropped)
attr title "packet drop: undefined, count"
scalar package_delivery.loRaGW.ipv4.ip packetDropUndefined:sum(packetBytes) 0
attr interpolationmode none
attr recordingmode sum(packetBytes)
attr source packetDropReasonIsUndefined(packetDropped)
attr title "packet drop: undefined, sum(packetBytes)"
par package_delivery.loRaGW.ipv4.arp typename "\"inet.networklayer.arp.ipv4.Arp\""
par package_delivery.loRaGW.ipv4.arp interfaceTableModule "\"package_delivery.loRaGW.interfaceTable\""
par package_delivery.loRaGW.ipv4.arp routingTableModule "\"package_delivery.loRaGW.ipv4.routingTable\""
par package_delivery.loRaGW.ipv4.arp retryTimeout 1s
attr unit s
par package_delivery.loRaGW.ipv4.arp retryCount 3
par package_delivery.loRaGW.ipv4.arp cacheTimeout 120s
attr unit s
par package_delivery.loRaGW.ipv4.arp proxyArpInterfaces "\"*\""
scalar package_delivery.loRaGW.ipv4.arp arpResolutionFailed:count 0
attr recordingmode count
attr title "ARP failed resolutions, count"
scalar package_delivery.loRaGW.ipv4.arp arpResolutionCompleted:count 1
attr recordingmode count
attr title "ARP completed resolutions, count"
scalar package_delivery.loRaGW.ipv4.arp arpResolutionInitiated:count 1
attr recordingmode count
attr title "ARP initiated resolutions, count"
scalar package_delivery.loRaGW.ipv4.arp arpReplySent:count 0
attr recordingmode count
attr source arpReplySent
attr title "ARP replies sent, count"
scalar package_delivery.loRaGW.ipv4.arp arpReplySent:sum(packetBytes) 0
attr recordingmode sum(packetBytes)
attr source arpReplySent
attr title "ARP replies sent, sum(packetBytes)"
scalar package_delivery.loRaGW.ipv4.arp arpRequestSent:count 1
attr recordingmode count
attr source arpRequestSent
attr title "ARP request sent, count"
scalar package_delivery.loRaGW.ipv4.arp arpRequestSent:sum(packetBytes) 28
attr recordingmode sum(packetBytes)
attr source arpRequestSent
attr title "ARP request sent, sum(packetBytes)"
par package_delivery.loRaGW.ipv4.lp typename "\"inet.common.MessageDispatcher\""
par package_delivery.loRaGW.ipv4.lp displayStringTextFormat "\"processed %p pk (%l)\""
par package_delivery.loRaGW.ipv4.lp forwardServiceRegistration true
par package_delivery.loRaGW.ipv4.lp forwardProtocolRegistration true
par package_delivery.loRaGW.ipv4 typename "\"inet.networklayer.ipv4.Ipv4NetworkLayer\""
par package_delivery.loRaGW.ipv4 forwarding false
par package_delivery.loRaGW.ipv4 multicastForwarding false
par package_delivery.loRaGW.ipv4 interfaceTableModule "\"package_delivery.loRaGW.interfaceTable\""
par package_delivery.loRaGW.ipv4 displayStringTextFormat "\"%i\""
par package_delivery.loRaGW.routingTable typename "\"inet.networklayer.ipv4.Ipv4RoutingTable\""
par package_delivery.loRaGW.routingTable interfaceTableModule "\"package_delivery.loRaGW.interfaceTable\""
par package_delivery.loRaGW.routingTable routerId "\"auto\""
par package_delivery.loRaGW.routingTable netmaskRoutes "\"*\""
par package_delivery.loRaGW.routingTable forwarding true
par package_delivery.loRaGW.routingTable multicastForwarding false
par package_delivery.loRaGW.routingTable useAdminDist false
par package_delivery.loRaGW.routingTable routingFile "\"\""
par package_delivery.loRaGW.ethernet typename "\"inet.linklayer.ethernet.basic.EthernetEncapsulation\""
par package_delivery.loRaGW.ethernet registerProtocol true
par package_delivery.loRaGW.ethernet interfaceTableModule "\"package_delivery.loRaGW.interfaceTable\""
par package_delivery.loRaGW.ethernet fcsMode "\"declared\""
attr enum declared,computed
par package_delivery.loRaGW.ethernet stopOperationExtraTime -1s
attr unit s
par package_delivery.loRaGW.ethernet stopOperationTimeout 2s
attr unit s
scalar package_delivery.loRaGW.ethernet pauseSent:count 0
attr recordingmode count
attr title "pause sent, count"
scalar package_delivery.loRaGW.ethernet pauseSent:sum 0
attr recordingmode sum
attr title "pause sent, sum"
scalar package_delivery.loRaGW.ethernet decapPk:count 1
attr interpolationmode none
attr recordingmode count
attr source decapPk
attr title "packets decapsulated, count"
scalar package_delivery.loRaGW.ethernet decapPk:sum(packetBytes) 46
attr interpolationmode none
attr recordingmode sum(packetBytes)
attr source decapPk
attr title "packets decapsulated, sum(packetBytes)"
scalar package_delivery.loRaGW.ethernet encapPk:count 2
attr interpolationmode none
attr recordingmode count
attr source encapPk
attr title "packets encapsulated, count"
scalar package_delivery.loRaGW.ethernet encapPk:sum(packetBytes) 83
attr interpolationmode none
attr recordingmode sum(packetBytes)
attr source encapPk
attr title "packets encapsulated, sum(packetBytes)"
par package_delivery.loRaGW typename "\"flora.LoraNode.LoRaGW\""
par package_delivery.loRaGW numEthInterfaces 0
par package_delivery.loRaGW numWlanInterfaces 1
par package_delivery.loRaGW hasIpv4 true
par package_delivery.loRaGW networkLayerType "\"Ipv4NetworkLayer\""
par package_delivery.loRaGW routingTableType "\"Ipv4RoutingTable\""
par package_delivery.loRaGW numUdpApps 1
par package_delivery.loRaGW hasUdp true
par package_delivery.loRaGW udpType "\"\""
par package_delivery.loRaMedium.propagation typename "\"inet.physicallayer.wireless.common.propagation.ConstantSpeedPropagation\""
par package_delivery.loRaMedium.propagation propagationSpeed 2.99792e+08mps
attr unit mps
par package_delivery.loRaMedium.propagation ignoreMovementDuringTransmission true
par package_delivery.loRaMedium.propagation ignoreMovementDuringPropagation true
par package_delivery.loRaMedium.propagation ignoreMovementDuringReception true
scalar package_delivery.loRaMedium.propagation "Arrival computation count" 4
par package_delivery.loRaMedium.analogModel typename "\"flora.LoRaPhy.LoRaAnalogModel\""
par package_delivery.loRaMedium.analogModel ignorePartialInterference false
par package_delivery.loRaMedium.backgroundNoise typename "\"inet.physicallayer.wireless.common.backgroundnoise.DimensionalBackgroundNoise\""
par package_delivery.loRaMedium.backgroundNoise gainFunctionCacheLimit 0
par package_delivery.loRaMedium.backgroundNoise timeGains "\"left 0s 0dB left\""
par package_delivery.loRaMedium.backgroundNoise timeGainsNormalization "\"\""
attr enum ,maximum,integral
par package_delivery.loRaMedium.backgroundNoise frequencyGains "\"left 0Hz 0dB left\""
par package_delivery.loRaMedium.backgroundNoise frequencyGainsNormalization "\"integral\""
attr enum ,maximum,integral
par package_delivery.loRaMedium.backgroundNoise power -96.616dBm
attr unit dBm
par package_delivery.loRaMedium.pathLoss typename "\"flora.LoRaPhy.LoRaLogNormalShadowing\""
par package_delivery.loRaMedium.pathLoss alpha 2
par package_delivery.loRaMedium.pathLoss systemLoss 0dB
attr unit dB
par package_delivery.loRaMedium.pathLoss d0 40m
attr unit m
par package_delivery.loRaMedium.pathLoss gamma 2.08
par package_delivery.loRaMedium.pathLoss sigma 3.57
par package_delivery.loRaMedium.mediumLimitCache typename "\"inet.physicallayer.wireless.common.medium.MediumLimitCache\""
par package_delivery.loRaMedium.mediumLimitCache centerFrequency "nan Hz"
attr unit Hz
par package_delivery.loRaMedium.mediumLimitCache maxSpeed "nan mps"
attr unit mps
par package_delivery.loRaMedium.mediumLimitCache maxTransmissionPower "nan W"
attr unit W
par package_delivery.loRaMedium.mediumLimitCache minInterferencePower "nan dBm"
attr unit dBm
par package_delivery.loRaMedium.mediumLimitCache minReceptionPower "nan dBm"
attr unit dBm
par package_delivery.loRaMedium.mediumLimitCache maxAntennaGain 0dB
attr unit dB
par package_delivery.loRaMedium.mediumLimitCache minInterferenceTime 0s
attr unit s
par package_delivery.loRaMedium.mediumLimitCache maxTransmissionDuration 4s
attr unit s
par package_delivery.loRaMedium.mediumLimitCache maxCommunicationRange "nan m"
attr unit m
par package_delivery.loRaMedium.mediumLimitCache maxInterferenceRange "nan m"
attr unit m
par package_delivery.loRaMedium.communicationCache typename "\"inet.physicallayer.wireless.common.communicationcache.VectorCommunicationCache\""
par package_delivery.loRaMedium typename "\"flora.LoRaPhy.LoRaMedium\""
par package_delivery.loRaMedium physicalEnvironmentModule "\"physicalEnvironment\""
par package_delivery.loRaMedium signalAnalogRepresentation "\"scalar\""
attr enum unitDisk,scalar,dimensional
par package_delivery.loRaMedium rangeFilter "\"communicationRange\""
par package_delivery.loRaMedium radioModeFilter false
par package_delivery.loRaMedium listeningFilter false
par package_delivery.loRaMedium macAddressFilter false
par package_delivery.loRaMedium recordTransmissionLog false
par package_delivery.loRaMedium recordReceptionLog false
scalar package_delivery.loRaMedium "transmission count" 1
scalar package_delivery.loRaMedium "signal send count" 4
scalar package_delivery.loRaMedium "reception computation count" 4
scalar package_delivery.loRaMedium "interference computation count" 8
scalar package_delivery.loRaMedium "reception decision computation count" 1
scalar package_delivery.loRaMedium "listening decision computation count" 6
scalar package_delivery.loRaMedium "reception cache hit" 60
attr unit %
scalar package_delivery.loRaMedium "interference cache hit" 66.666666666667
attr unit %
scalar package_delivery.loRaMedium "noise cache hit" 0
attr unit %
scalar package_delivery.loRaMedium "snir cache hit" 50
attr unit %
scalar package_delivery.loRaMedium "reception decision cache hit" 50
attr unit %
scalar package_delivery.loRaMedium "reception result cache hit" 0
attr unit %
par package_delivery.myRouter.ethg$i[0].channel typename "\"ned.IdealChannel\""
par package_delivery.myRouter.eth[0].phys$o.channel typename "\"ned.IdealChannel\""
par package_delivery.myRouter.ethg$i[1].channel typename "\"ned.IdealChannel\""
par package_delivery.myRouter.eth[1].phys$o.channel typename "\"ned.IdealChannel\""
par package_delivery.myRouter.interfaceTable typename "\"inet.networklayer.common.InterfaceTable\""
par package_delivery.myRouter.interfaceTable displayAddresses true
par package_delivery.myRouter.cb typename "\"inet.common.MessageDispatcher\""
par package_delivery.myRouter.cb displayStringTextFormat "\"processed %p pk (%l)\""
par package_delivery.myRouter.cb forwardServiceRegistration true
par package_delivery.myRouter.cb forwardProtocolRegistration true
par package_delivery.myRouter.bl typename "\"inet.common.MessageDispatcher\""
par package_delivery.myRouter.bl displayStringTextFormat "\"processed %p pk (%l)\""
par package_delivery.myRouter.bl forwardServiceRegistration true
par package_delivery.myRouter.bl forwardProtocolRegistration true
par package_delivery.myRouter.ethernet typename "\"inet.linklayer.ethernet.basic.EthernetEncapsulation\""
par package_delivery.myRouter.ethernet registerProtocol true
par package_delivery.myRouter.ethernet interfaceTableModule "\"package_delivery.myRouter.interfaceTable\""
par package_delivery.myRouter.ethernet fcsMode "\"declared\""
attr enum declared,computed
par package_delivery.myRouter.ethernet stopOperationExtraTime -1s
attr unit s
par package_delivery.myRouter.ethernet stopOperationTimeout 2s
attr unit s
scalar package_delivery.myRouter.ethernet pauseSent:count 0
attr recordingmode count
attr title "pause sent, count"
scalar package_delivery.myRouter.ethernet pauseSent:sum 0
attr recordingmode sum
attr title "pause sent, sum"
scalar package_delivery.myRouter.ethernet decapPk:count 3
attr interpolationmode none
attr recordingmode count
attr source decapPk
attr title "packets decapsulated, count"
scalar package_delivery.myRouter.ethernet decapPk:sum(packetBytes) 147
attr interpolationmode none
attr recordingmode sum(packetBytes)
attr source decapPk
attr title "packets decapsulated, sum(packetBytes)"
scalar package_delivery.myRouter.ethernet encapPk:count 3
attr interpolationmode none
attr recordingmode count
attr source encapPk
attr title "packets encapsulated, count"
scalar package_delivery.myRouter.ethernet encapPk:sum(packetBytes) 111
attr interpolationmode none
attr recordingmode sum(packetBytes)
attr source encapPk
attr title "packets encapsulated, sum(packetBytes)"
par package_delivery.myRouter.li typename "\"inet.common.MessageDispatcher\""
par package_delivery.myRouter.li displayStringTextFormat "\"processed %p pk (%l)\""
par package_delivery.myRouter.li forwardServiceRegistration true
par package_delivery.myRouter.li forwardProtocolRegistration true
par package_delivery.myRouter.lo[0].upperLayerIn.channel typename "\"ned.IdealChannel\""
par package_delivery.myRouter.lo[0].lo.upperLayerOut.channel typename "\"ned.IdealChannel\""
par package_delivery.myRouter.lo[0].lo typename "\"inet.linklayer.loopback.Loopback\""
par package_delivery.myRouter.lo[0].lo interfaceTableModule "\"package_delivery.myRouter.interfaceTable\""
par package_delivery.myRouter.lo[0].lo mtu 4470B
attr unit B
scalar package_delivery.myRouter.lo[0].lo rcvdPkFromHl:count 0
attr interpolationmode none
attr recordingmode count
attr source packetReceivedFromUpper
attr title "packets received from higher layer, count"
scalar package_delivery.myRouter.lo[0].lo rcvdPkFromHl:sum(packetBytes) 0
attr interpolationmode none
attr recordingmode sum(packetBytes)
attr source packetReceivedFromUpper
attr title "packets received from higher layer, sum(packetBytes)"
scalar package_delivery.myRouter.lo[0].lo passedUpPk:count 0
attr interpolationmode none
attr recordingmode count
attr source packetSentToUpper
attr title "packets passed to higher layer, count"
scalar package_delivery.myRouter.lo[0].lo passedUpPk:sum(packetBytes) 0
attr interpolationmode none
attr recordingmode sum(packetBytes)
attr source packetSentToUpper
attr title "packets passed to higher layer, sum(packetBytes)"
par package_delivery.myRouter.lo[0] typename "\"inet.linklayer.loopback.LoopbackInterface\""
par package_delivery.myRouter.lo[0] displayStringTextFormat "\"%a (%i)\\n%m\""
par package_delivery.myRouter.lo[0] recordPcap false
par package_delivery.myRouter.lo[0] numPcapRecorders 0
par package_delivery.myRouter.lo[0] interfaceTableModule "\"package_delivery.myRouter.interfaceTable\""
scalar package_delivery.myRouter.lo[0] packetDropInterfaceDown:count 0
attr interpolationmode none
attr recordingmode count
attr source packetDropReasonIsInterfaceDown(packetDropped)
attr title "packet drops: interface down, count"
scalar package_delivery.myRouter.lo[0] packetDropInterfaceDown:sum(packetBytes) 0
attr interpolationmode none
attr recordingmode sum(packetBytes)
attr source packetDropReasonIsInterfaceDown(packetDropped)
attr title "packet drops: interface down, sum(packetBytes)"
scalar package_delivery.myRouter.lo[0] packetDropNoCarrier:count 0
attr interpolationmode none
attr recordingmode count
attr source packetDropReasonIsNoCarrier(packetDropped)
attr title "packet drops: no carrier, count"
scalar package_delivery.myRouter.lo[0] packetDropNoCarrier:sum(packetBytes) 0
attr interpolationmode none
attr recordingmode sum(packetBytes)
attr source packetDropReasonIsNoCarrier(packetDropped)
attr title "packet drops: no carrier, sum(packetBytes)"
par package_delivery.myRouter.eth[0].mac.phys$o.channel typename "\"ned.IdealChannel\""
par package_delivery.myRouter.eth[0].phys$i.channel typename "\"ned.IdealChannel\""
par package_delivery.myRouter.eth[0].upperLayerIn.channel typename "\"ned.IdealChannel\""
par package_delivery.myRouter.eth[0].mac.upperLayerOut.channel typename "\"ned.IdealChannel\""
par package_delivery.myRouter.eth[0].queue typename "\"inet.linklayer.ethernet.common.EthernetQueue\""
par package_delivery.myRouter.eth[0].queue displayStringTextFormat "\"contains %p pk (%l) pushed %u\\npulled %o removed %r dropped %d\""
par package_delivery.myRouter.eth[0].queue packetCapacity 1000
par package_delivery.myRouter.eth[0].queue dataCapacity -1b
attr unit b
par package_delivery.myRouter.eth[0].queue dropperClass "\"inet::queueing::PacketAtCollectionEndDropper\""
par package_delivery.myRouter.eth[0].queue comparatorClass "\"inet::EthernetFrameTypeComparator\""
par package_delivery.myRouter.eth[0].queue bufferModule "\"\""
scalar package_delivery.myRouter.eth[0].queue queueLength:last 0
attr autoWarmupFilter false
attr interpolationmode sample-hold
attr recordingmode last
attr source "warmup(atomic(constant0(packetPushEnded) + count(packetPushStarted) - count(packetPulled) - count(packetRemoved) - count(packetDropped)))"
attr title "queue length, last"
attr unit pk
scalar package_delivery.myRouter.eth[0].queue queueLength:max 0
attr autoWarmupFilter false
attr interpolationmode sample-hold
attr recordingmode max
attr source "warmup(atomic(constant0(packetPushEnded) + count(packetPushStarted) - count(packetPulled) - count(packetRemoved) - count(packetDropped)))"
attr title "queue length, max"
attr unit pk
scalar package_delivery.myRouter.eth[0].queue queueLength:timeavg 0
attr autoWarmupFilter false
attr interpolationmode sample-hold
attr recordingmode timeavg
attr source "warmup(atomic(constant0(packetPushEnded) + count(packetPushStarted) - count(packetPulled) - count(packetRemoved) - count(packetDropped)))"
attr title "queue length, timeavg"
attr unit pk
scalar package_delivery.myRouter.eth[0].queue queueBitLength:last 0
attr autoWarmupFilter false
attr interpolationmode sample-hold
attr recordingmode last
attr source "warmup(atomic(constant0(packetPushEnded) + sum(packetLength(packetPushStarted)) - sum(packetLength(packetPulled)) - sum(packetLength(packetRemoved)) - sum(packetLength(packetDropped))))"
attr title "queue bit length, last"
attr unit b
scalar package_delivery.myRouter.eth[0].queue queueBitLength:max 0
attr autoWarmupFilter false
attr interpolationmode sample-hold
attr recordingmode max
attr source "warmup(atomic(constant0(packetPushEnded) + sum(packetLength(packetPushStarted)) - sum(packetLength(packetPulled)) - sum(packetLength(packetRemoved)) - sum(packetLength(packetDropped))))"
attr title "queue bit length, max"
attr unit b
scalar package_delivery.myRouter.eth[0].queue queueBitLength:timeavg 0
attr autoWarmupFilter false
attr interpolationmode sample-hold
attr recordingmode timeavg
attr source "warmup(atomic(constant0(packetPushEnded) + sum(packetLength(packetPushStarted)) - sum(packetLength(packetPulled)) - sum(packetLength(packetRemoved)) - sum(packetLength(packetDropped))))"
attr title "queue bit length, timeavg"
attr unit b
statistic package_delivery.myRouter.eth[0].queue queueingTime:histogram
field count 2
field mean 0
field stddev 0
field min 0
field max 0
field sum 0
field sqrsum 0
attr interpolationmode none
attr recordingmode histogram
attr source queueingTime(packetPulled)
attr title "queueing times"
attr unit s
bin	-inf	0
bin	-0.5	0
bin	-0.48	0
bin	-0.46	0
bin	-0.44	0
bin	-0.42	0
bin	-0.4	0
bin	-0.38	0
bin	-0.36	0
bin	-0.34	0
bin	-0.32	0
bin	-0.3	0
bin	-0.28	0
bin	-0.26	0
bin	-0.24	0
bin	-0.22	0
bin	-0.2	0
bin	-0.18	0
bin	-0.16	0
bin	-0.14	0
bin	-0.12	0
bin	-0.1	0
bin	-0.08	0
bin	-0.06	0
bin	-0.04	0
bin	-0.02	0
bin	0	2
bin	0.02	0
bin	0.04	0
bin	0.06	0
bin	0.08	0
bin	0.1	0
bin	0.12	0
bin	0.14	0
bin	0.16	0
bin	0.18	0
bin	0.2	0
bin	0.22	0
bin	0.24	0
bin	0.26	0
bin	0.28	0
bin	0.3	0
bin	0.32	0
bin	0.34	0
bin	0.36	0
bin	0.38	0
bin	0.4	0
bin	0.42	0
bin	0.44	0
bin	0.46	0
bin	0.48	0
bin	0.5	0
scalar package_delivery.myRouter.eth[0].queue outgoingPackets:count 2
attr recordingmode count
attr source packetPulled
attr title "outgoing packets, count"
attr unit pk
scalar package_delivery.myRouter.eth[0].queue outgoingPacketLengths:sum 952
attr interpolationmode none
attr recordingmode sum
attr source packetLength(packetPulled)
attr title "outgoing packet lengths, sum"
attr unit b
statistic package_delivery.myRouter.eth[0].queue outgoingPacketLengths:histogram
field count 2
field mean 476
field stddev 152.73506473629
field min 368
field max 584
field sum 952
field sqrsum 476480
attr interpolationmode none
attr recordingmode histogram
attr source packetLength(packetPulled)
attr title "outgoing packet lengths"
attr unit b
bin	-inf	0
bin	310	0
bin	315	0
bin	320	0
bin	325	0
bin	330	0
bin	335	0
bin	340	0
bin	345	0
bin	350	0
bin	355	0
bin	360	0
bin	365	1
bin	370	0
bin	375	0
bin	380	0
bin	385	0
bin	390	0
bin	395	0
bin	400	0
bin	405	0
bin	410	0
bin	415	0
bin	420	0
bin	425	0
bin	430	0
bin	435	0
bin	440	0
bin	445	0
bin	450	0
bin	455	0
bin	460	0
bin	465	0
bin	470	0
bin	475	0
bin	480	0
bin	485	0
bin	490	0
bin	495	0
bin	500	0
bin	505	0
bin	510	0
bin	515	0
bin	520	0
bin	525	0
bin	530	0
bin	535	0
bin	540	0
bin	545	0
bin	550	0
bin	555	0
bin	560	0
bin	565	0
bin	570	0
bin	575	0
bin	580	1
bin	585	0
bin	590	0
bin	595	0
bin	600	0
bin	605	0
bin	610	0
bin	615	0
bin	620	0
bin	625	0
bin	630	0
bin	635	0
bin	640	0
statistic package_delivery.myRouter.eth[0].queue flowQueueingTime:histogram
field count 0
field mean -nan
field stddev -nan
field min -nan
field max -nan
field sum 0
field sqrsum 0
attr interpolationmode none
attr recordingmode histogram
attr source queueingTime(demuxFlow(packetPulled))
attr title "flow queueing times"
attr unit s
bin	-inf	0
bin	0	0
bin	1	0
scalar package_delivery.myRouter.eth[0].queue incomingPackets:count 2
attr recordingmode count
attr source packetPushStarted
attr title "incoming packets, count"
attr unit pk
scalar package_delivery.myRouter.eth[0].queue incomingPacketLengths:sum 952
attr interpolationmode none
attr recordingmode sum
attr source packetLength(packetPushStarted)
attr title "incoming packet lengths, sum"
attr unit b
statistic package_delivery.myRouter.eth[0].queue incomingPacketLengths:histogram
field count 2
field mean 476
field stddev 152.73506473629
field min 368
field max 584
field sum 952
field sqrsum 476480
attr interpolationmode none
attr recordingmode histogram
attr source packetLength(packetPushStarted)
attr title "incoming packet lengths"
attr unit b
bin	-inf	0
bin	310	0
bin	315	0
bin	320	0
bin	325	0
bin	330	0
bin	335	0
bin	340	0
bin	345	0
bin	350	0
bin	355	0
bin	360	0
bin	365	1
bin	370	0
bin	375	0
bin	380	0
bin	385	0
bin	390	0
bin	395	0
bin	400	0
bin	405	0
bin	410	0
bin	415	0
bin	420	0
bin	425	0
bin	430	0
bin	435	0
bin	440	0
bin	445	0
bin	450	0
bin	455	0
bin	460	0
bin	465	0
bin	470	0
bin	475	0
bin	480	0
bin	485	0
bin	490	0
bin	495	0
bin	500	0
bin	505	0
bin	510	0
bin	515	0
bin	520	0
bin	525	0
bin	530	0
bin	535	0
bin	540	0
bin	545	0
bin	550	0
bin	555	0
bin	560	0
bin	565	0
bin	570	0
bin	575	0
bin	580	1
bin	585	0
bin	590	0
bin	595	0
bin	600	0
bin	605	0
bin	610	0
bin	615	0
bin	620	0
bin	625	0
bin	630	0
bin	635	0
bin	640	0
scalar package_delivery.myRouter.eth[0].queue droppedPacketsQueueOverflow:count 0
attr interpolationmode none
attr recordingmode count
attr source packetDropReasonIsQueueOverflow(packetDropped)
attr title "dropped packets: queue overflow, count"
attr unit pk
scalar package_delivery.myRouter.eth[0].queue droppedPacketLengthsQueueOverflow:sum 0
attr interpolationmode none
attr recordingmode sum
attr source packetLength(packetDropReasonIsQueueOverflow(packetDropped))
attr title "dropped packet lengths: queue overflow, sum"
attr unit b
par package_delivery.myRouter.eth[0].mac typename "\"inet.linklayer.ethernet.basic.EthernetMac\""
par package_delivery.myRouter.eth[0].mac interfaceTableModule "\"package_delivery.myRouter.interfaceTable\""
par package_delivery.myRouter.eth[0].mac displayStringTextFormat "\"rate: %b\\nsent: %s, rcvd: %r\\nqueue: %q, drop: %d\""
par package_delivery.myRouter.eth[0].mac sendRawBytes false
par package_delivery.myRouter.eth[0].mac promiscuous false
par package_delivery.myRouter.eth[0].mac duplexMode true
par package_delivery.myRouter.eth[0].mac mtu 1500B
attr unit B
par package_delivery.myRouter.eth[0].mac fcsMode "\"declared\""
attr enum declared,computed
par package_delivery.myRouter.eth[0].mac stopOperationExtraTime -1s
attr unit s
par package_delivery.myRouter.eth[0].mac stopOperationTimeout 2s
attr unit s
scalar package_delivery.myRouter.eth[0].mac "simulated time" 936.71213288089
scalar package_delivery.myRouter.eth[0].mac full-duplex 1
scalar package_delivery.myRouter.eth[0].mac "frames/sec sent" 0.0021351276766843
scalar package_delivery.myRouter.eth[0].mac "frames/sec rcvd" 0.0010675638383422
scalar package_delivery.myRouter.eth[0].mac "bits/sec sent" 1.170049966823
scalar package_delivery.myRouter.eth[0].mac "bits/sec rcvd" 0.54659268523119
scalar package_delivery.myRouter.eth[0].mac "rx channel idle (%)" 99.999999938508
scalar package_delivery.myRouter.eth[0].mac "rx channel utilization (%)" 6.1491677088509e-08
scalar package_delivery.myRouter.eth[0].mac rxPausePkUnits:count 0
attr interpolationmode none
attr recordingmode count
attr title "pause units received, count"
scalar package_delivery.myRouter.eth[0].mac rxPausePkUnits:sum 0
attr interpolationmode none
attr recordingmode sum
attr title "pause units received, sum"
scalar package_delivery.myRouter.eth[0].mac txPausePkUnits:count 0
attr interpolationmode none
attr recordingmode count
attr title "pause units sent, count"
scalar package_delivery.myRouter.eth[0].mac txPausePkUnits:sum 0
attr interpolationmode none
attr recordingmode sum
attr title "pause units sent, sum"
scalar package_delivery.myRouter.eth[0].mac rxPkOk:count 1
attr interpolationmode none
attr recordingmode count
attr source rxPkOk
attr title "packets received OK, count"
scalar package_delivery.myRouter.eth[0].mac rxPkOk:sum(packetBytes) 64
attr interpolationmode none
attr recordingmode sum(packetBytes)
attr source rxPkOk
attr title "packets received OK, sum(packetBytes)"
scalar package_delivery.myRouter.eth[0].mac txPk:count 2
attr interpolationmode none
attr recordingmode count
attr source packetSentToLower
attr title "packets transmitted, count"
scalar package_delivery.myRouter.eth[0].mac txPk:sum(packetBytes) 137
attr interpolationmode none
attr recordingmode sum(packetBytes)
attr source packetSentToLower
attr title "packets transmitted, sum(packetBytes)"
scalar package_delivery.myRouter.eth[0].mac packetReceivedFromUpper:count 2
attr interpolationmode none
attr recordingmode count
attr source packetReceivedFromUpper
attr title "packet bytes from higher layer, count"
scalar package_delivery.myRouter.eth[0].mac packetReceivedFromUpper:sum(packetBytes) 119
attr interpolationmode none
attr recordingmode sum(packetBytes)
attr source packetReceivedFromUpper
attr title "packet bytes from higher layer, sum(packetBytes)"
scalar package_delivery.myRouter.eth[0].mac passedUpPk:count 1
attr interpolationmode none
attr recordingmode count
attr source packetSentToUpper
attr title "packets passed to higher layer, count"
scalar package_delivery.myRouter.eth[0].mac passedUpPk:sum(packetBytes) 64
attr interpolationmode none
attr recordingmode sum(packetBytes)
attr source packetSentToUpper
attr title "packets passed to higher layer, sum(packetBytes)"
scalar package_delivery.myRouter.eth[0].mac packetDropIncorrectlyReceived:count 0
attr interpolationmode none
attr recordingmode count
attr source packetDropReasonIsIncorrectlyReceived(packetDropped)
attr title "packet drop: incorrectly received, count"
scalar package_delivery.myRouter.eth[0].mac packetDropIncorrectlyReceived:sum(packetBytes) 0
attr interpolationmode none
attr recordingmode sum(packetBytes)
attr source packetDropReasonIsIncorrectlyReceived(packetDropped)
attr title "packet drop: incorrectly received, sum(packetBytes)"
scalar package_delivery.myRouter.eth[0].mac packetDropInterfaceDown:count 0
attr interpolationmode none
attr recordingmode count
attr source packetDropReasonIsInterfaceDown(packetDropped)
attr title "packet drop: interface down, count"
scalar package_delivery.myRouter.eth[0].mac packetDropInterfaceDown:sum(packetBytes) 0
attr interpolationmode none
attr recordingmode sum(packetBytes)
attr source packetDropReasonIsInterfaceDown(packetDropped)
attr title "packet drop: interface down, sum(packetBytes)"
scalar package_delivery.myRouter.eth[0].mac packetDropNotAddressedToUs:count 0
attr interpolationmode none
attr recordingmode count
attr source packetDropReasonIsNotAddressedToUs(packetDropped)
attr title "packet drop: not addressed to us, count"
scalar package_delivery.myRouter.eth[0].mac packetDropNotAddressedToUs:sum(packetBytes) 0
attr interpolationmode none
attr recordingmode sum(packetBytes)
attr source packetDropReasonIsNotAddressedToUs(packetDropped)
attr title "packet drop: not addressed to us, sum(packetBytes)"
par package_delivery.myRouter.eth[0] typename "\"inet.linklayer.ethernet.EthernetInterface\""
par package_delivery.myRouter.eth[0] displayStringTextFormat "\"%a (%i)\\n%m\""
par package_delivery.myRouter.eth[0] recordPcap false
par package_delivery.myRouter.eth[0] numPcapRecorders 0
par package_delivery.myRouter.eth[0] interfaceTableModule "\"package_delivery.myRouter.interfaceTable\""
par package_delivery.myRouter.eth[0] protocol "\"ethernetmac\""
par package_delivery.myRouter.eth[0] address "\"0A-AA-00-00-00-07\""
attr mutable ""
par package_delivery.myRouter.eth[0] duplexMode true
par package_delivery.myRouter.eth[0] csmacdSupport false
par package_delivery.myRouter.eth[0] bitrate 0bps
attr unit bps
par package_delivery.myRouter.eth[0] fcsMode "\"declared\""
attr enum declared,computed
scalar package_delivery.myRouter.eth[0] packetDropInterfaceDown:count 0
attr interpolationmode none
attr recordingmode count
attr source packetDropReasonIsInterfaceDown(packetDropped)
attr title "packet drops: interface down, count"
scalar package_delivery.myRouter.eth[0] packetDropInterfaceDown:sum(packetBytes) 0
attr interpolationmode none
attr recordingmode sum(packetBytes)
attr source packetDropReasonIsInterfaceDown(packetDropped)
attr title "packet drops: interface down, sum(packetBytes)"
scalar package_delivery.myRouter.eth[0] packetDropNoCarrier:count 0
attr interpolationmode none
attr recordingmode count
attr source packetDropReasonIsNoCarrier(packetDropped)
attr title "packet drops: no carrier, count"
scalar package_delivery.myRouter.eth[0] packetDropNoCarrier:sum(packetBytes) 0
attr interpolationmode none
attr recordingmode sum(packetBytes)
attr source packetDropReasonIsNoCarrier(packetDropped)
attr title "packet drops: no carrier, sum(packetBytes)"
par package_delivery.myRouter.eth[1].mac.phys$o.channel typename "\"ned.IdealChannel\""
par package_delivery.myRouter.eth[1].phys$i.channel typename "\"ned.IdealChannel\""
par package_delivery.myRouter.eth[1].upperLayerIn.channel typename "\"ned.IdealChannel\""
par package_delivery.myRouter.eth[1].mac.upperLayerOut.channel typename "\"ned.IdealChannel\""
par package_delivery.myRouter.eth[1].queue typename "\"inet.linklayer.ethernet.common.EthernetQueue\""
par package_delivery.myRouter.eth[1].queue displayStringTextFormat "\"contains %p pk (%l) pushed %u\\npulled %o removed %r dropped %d\""
par package_delivery.myRouter.eth[1].queue packetCapacity 1000
par package_delivery.myRouter.eth[1].queue dataCapacity -1b
attr unit b
par package_delivery.myRouter.eth[1].queue dropperClass "\"inet::queueing::PacketAtCollectionEndDropper\""
par package_delivery.myRouter.eth[1].queue comparatorClass "\"inet::EthernetFrameTypeComparator\""
par package_delivery.myRouter.eth[1].queue bufferModule "\"\""
scalar package_delivery.myRouter.eth[1].queue queueLength:last 0
attr autoWarmupFilter false
attr interpolationmode sample-hold
attr recordingmode last
attr source "warmup(atomic(constant0(packetPushEnded) + count(packetPushStarted) - count(packetPulled) - count(packetRemoved) - count(packetDropped)))"
attr title "queue length, last"
attr unit pk
scalar package_delivery.myRouter.eth[1].queue queueLength:max 0
attr autoWarmupFilter false
attr interpolationmode sample-hold
attr recordingmode max
attr source "warmup(atomic(constant0(packetPushEnded) + count(packetPushStarted) - count(packetPulled) - count(packetRemoved) - count(packetDropped)))"
attr title "queue length, max"
attr unit pk
scalar package_delivery.myRouter.eth[1].queue queueLength:timeavg 0
attr autoWarmupFilter false
attr interpolationmode sample-hold
attr recordingmode timeavg
attr source "warmup(atomic(constant0(packetPushEnded) + count(packetPushStarted) - count(packetPulled) - count(packetRemoved) - count(packetDropped)))"
attr title "queue length, timeavg"
attr unit pk
scalar package_delivery.myRouter.eth[1].queue queueBitLength:last 0
attr autoWarmupFilter false
attr interpolationmode sample-hold
attr recordingmode last
attr source "warmup(atomic(constant0(packetPushEnded) + sum(packetLength(packetPushStarted)) - sum(packetLength(packetPulled)) - sum(packetLength(packetRemoved)) - sum(packetLength(packetDropped))))"
attr title "queue bit length, last"
attr unit b
scalar package_delivery.myRouter.eth[1].queue queueBitLength:max 0
attr autoWarmupFilter false
attr interpolationmode sample-hold
attr recordingmode max
attr source "warmup(atomic(constant0(packetPushEnded) + sum(packetLength(packetPushStarted)) - sum(packetLength(packetPulled)) - sum(packetLength(packetRemoved)) - sum(packetLength(packetDropped))))"
attr title "queue bit length, max"
attr unit b
scalar package_delivery.myRouter.eth[1].queue queueBitLength:timeavg 0
attr autoWarmupFilter false
attr interpolationmode sample-hold
attr recordingmode timeavg
attr source "warmup(atomic(constant0(packetPushEnded) + sum(packetLength(packetPushStarted)) - sum(packetLength(packetPulled)) - sum(packetLength(packetRemoved)) - sum(packetLength(packetDropped))))"
attr title "queue bit length, timeavg"
attr unit b
statistic package_delivery.myRouter.eth[1].queue queueingTime:histogram
field count 1
field mean 0
field stddev -nan
field min 0
field max 0
field sum 0
field sqrsum 0
attr interpolationmode none
attr recordingmode histogram
attr source queueingTime(packetPulled)
attr title "queueing times"
attr unit s
bin	-inf	0
bin	-0.5	0
bin	-0.48	0
bin	-0.46	0
bin	-0.44	0
bin	-0.42	0
bin	-0.4	0
bin	-0.38	0
bin	-0.36	0
bin	-0.34	0
bin	-0.32	0
bin	-0.3	0
bin	-0.28	0
bin	-0.26	0
bin	-0.24	0
bin	-0.22	0
bin	-0.2	0
bin	-0.18	0
bin	-0.16	0
bin	-0.14	0
bin	-0.12	0
bin	-0.1	0
bin	-0.08	0
bin	-0.06	0
bin	-0.04	0
bin	-0.02	0
bin	0	1
bin	0.02	0
bin	0.04	0
bin	0.06	0
bin	0.08	0
bin	0.1	0
bin	0.12	0
bin	0.14	0
bin	0.16	0
bin	0.18	0
bin	0.2	0
bin	0.22	0
bin	0.24	0
bin	0.26	0
bin	0.28	0
bin	0.3	0
bin	0.32	0
bin	0.34	0
bin	0.36	0
bin	0.38	0
bin	0.4	0
bin	0.42	0
bin	0.44	0
bin	0.46	0
bin	0.48	0
bin	0.5	0
scalar package_delivery.myRouter.eth[1].queue outgoingPackets:count 1
attr recordingmode count
attr source packetPulled
attr title "outgoing packets, count"
attr unit pk
scalar package_delivery.myRouter.eth[1].queue outgoingPacketLengths:sum 368
attr interpolationmode none
attr recordingmode sum
attr source packetLength(packetPulled)
attr title "outgoing packet lengths, sum"
attr unit b
statistic package_delivery.myRouter.eth[1].queue outgoingPacketLengths:histogram
field count 1
field mean 368
field stddev -nan
field min 368
field max 368
field sum 368
field sqrsum 135424
attr interpolationmode none
attr recordingmode histogram
attr source packetLength(packetPulled)
attr title "outgoing packet lengths"
attr unit b
bin	-inf	0
bin	367	0
bin	368	1
bin	369	0
statistic package_delivery.myRouter.eth[1].queue flowQueueingTime:histogram
field count 0
field mean -nan
field stddev -nan
[...]
par package_delivery.node4.LoRaNic.queue typename "\"inet.queueing.queue.DropTailQueue\""
par package_delivery.node4.LoRaNic.queue displayStringTextFormat "\"contains %p pk (%l) pushed %u\\npulled %o removed %r dropped %d\""
par package_delivery.node4.LoRaNic.queue packetCapacity -1
par package_delivery.node4.LoRaNic.queue dataCapacity -1b
attr unit b
par package_delivery.node4.LoRaNic.queue dropperClass "\"inet::queueing::PacketAtCollectionEndDropper\""
par package_delivery.node4.LoRaNic.queue comparatorClass "\"\""
par package_delivery.node4.LoRaNic.queue bufferModule "\"\""
scalar package_delivery.node4.LoRaNic.queue queueLength:last nan
attr autoWarmupFilter false
attr interpolationmode sample-hold
attr recordingmode last
attr source "warmup(atomic(constant0(packetPushEnded) + count(packetPushStarted) - count(packetPulled) - count(packetRemoved) - count(packetDropped)))"
attr title "queue length, last"
attr unit pk
scalar package_delivery.node4.LoRaNic.queue queueLength:max -nan
attr autoWarmupFilter false
attr interpolationmode sample-hold
attr recordingmode max
attr source "warmup(atomic(constant0(packetPushEnded) + count(packetPushStarted) - count(packetPulled) - count(packetRemoved) - count(packetDropped)))"
attr title "queue length, max"
attr unit pk
scalar package_delivery.node4.LoRaNic.queue queueLength:timeavg -nan
attr autoWarmupFilter false
attr interpolationmode sample-hold
attr recordingmode timeavg
attr source "warmup(atomic(constant0(packetPushEnded) + count(packetPushStarted) - count(packetPulled) - count(packetRemoved) - count(packetDropped)))"
attr title "queue length, timeavg"
attr unit pk
scalar package_delivery.node4.LoRaNic.queue queueBitLength:last nan
attr autoWarmupFilter false
attr interpolationmode sample-hold
attr recordingmode last
attr source "warmup(atomic(constant0(packetPushEnded) + sum(packetLength(packetPushStarted)) - sum(packetLength(packetPulled)) - sum(packetLength(packetRemoved)) - sum(packetLength(packetDropped))))"
attr title "queue bit length, last"
attr unit b
scalar package_delivery.node4.LoRaNic.queue queueBitLength:max -nan
attr autoWarmupFilter false
attr interpolationmode sample-hold
attr recordingmode max
attr source "warmup(atomic(constant0(packetPushEnded) + sum(packetLength(packetPushStarted)) - sum(packetLength(packetPulled)) - sum(packetLength(packetRemoved)) - sum(packetLength(packetDropped))))"
attr title "queue bit length, max"
attr unit b
scalar package_delivery.node4.LoRaNic.queue queueBitLength:timeavg -nan
attr autoWarmupFilter false
attr interpolationmode sample-hold
attr recordingmode timeavg
attr source "warmup(atomic(constant0(packetPushEnded) + sum(packetLength(packetPushStarted)) - sum(packetLength(packetPulled)) - sum(packetLength(packetRemoved)) - sum(packetLength(packetDropped))))"
attr title "queue bit length, timeavg"
attr unit b
statistic package_delivery.node4.LoRaNic.queue queueingTime:histogram
field count 0
field mean -nan
field stddev -nan
field min -nan
field max -nan
field sum 0
field sqrsum 0
attr interpolationmode none
attr recordingmode histogram
attr source queueingTime(packetPulled)
attr title "queueing times"
attr unit s
bin	-inf	0
bin	0	0
bin	1	0
scalar package_delivery.node4.LoRaNic.queue outgoingPackets:count 0
attr recordingmode count
attr source packetPulled
attr title "outgoing packets, count"
attr unit pk
scalar package_delivery.node4.LoRaNic.queue outgoingPacketLengths:sum 0
attr interpolationmode none
attr recordingmode sum
attr source packetLength(packetPulled)
attr title "outgoing packet lengths, sum"
attr unit b
statistic package_delivery.node4.LoRaNic.queue outgoingPacketLengths:histogram
field count 0
field mean -nan
field stddev -nan
field min -nan
field max -nan
field sum 0
field sqrsum 0
attr interpolationmode none
attr recordingmode histogram
attr source packetLength(packetPulled)
attr title "outgoing packet lengths"
attr unit b
bin	-inf	0
bin	0	0
bin	1	0
statistic package_delivery.node4.LoRaNic.queue flowQueueingTime:histogram
field count 0
field mean -nan
field stddev -nan
field min -nan
field max -nan
field sum 0
field sqrsum 0
attr interpolationmode none
attr recordingmode histogram
attr source queueingTime(demuxFlow(packetPulled))
attr title "flow queueing times"
attr unit s
bin	-inf	0
bin	0	0
bin	1	0
scalar package_delivery.node4.LoRaNic.queue incomingPackets:count 0
attr recordingmode count
attr source packetPushStarted
attr title "incoming packets, count"
attr unit pk
scalar package_delivery.node4.LoRaNic.queue incomingPacketLengths:sum 0
attr interpolationmode none
attr recordingmode sum
attr source packetLength(packetPushStarted)
attr title "incoming packet lengths, sum"
attr unit b
statistic package_delivery.node4.LoRaNic.queue incomingPacketLengths:histogram
field count 0
field mean -nan
field stddev -nan
field min -nan
field max -nan
field sum 0
field sqrsum 0
attr interpolationmode none
attr recordingmode histogram
attr source packetLength(packetPushStarted)
attr title "incoming packet lengths"
attr unit b
bin	-inf	0
bin	0	0
bin	1	0
scalar package_delivery.node4.LoRaNic.queue droppedPacketsQueueOverflow:count 0
attr interpolationmode none
attr recordingmode count
attr source packetDropReasonIsQueueOverflow(packetDropped)
attr title "dropped packets: queue overflow, count"
attr unit pk
scalar package_delivery.node4.LoRaNic.queue droppedPacketLengthsQueueOverflow:sum 0
attr interpolationmode none
attr recordingmode sum
attr source packetLength(packetDropReasonIsQueueOverflow(packetDropped))
attr title "dropped packet lengths: queue overflow, sum"
attr unit b
par package_delivery.node4.LoRaNic.mac typename "\"flora.LoRa.LoRaMac\""
par package_delivery.node4.LoRaNic.mac interfaceTableModule "\"package_delivery.node4.interfaceTable\""
par package_delivery.node4.LoRaNic.mac radioModule "\"^.radio\""
par package_delivery.node4.LoRaNic.mac address "\"0A-AA-00-00-00-05\""
attr mutable ""
par package_delivery.node4.LoRaNic.mac fcsMode "\"declared\""
attr enum declared,computed
par package_delivery.node4.LoRaNic.mac useAck true
par package_delivery.node4.LoRaNic.mac bitrate 250bps
attr unit bps
par package_delivery.node4.LoRaNic.mac headerLength 17B
attr unit B
par package_delivery.node4.LoRaNic.mac ackLength 14B
attr unit B
par package_delivery.node4.LoRaNic.mac sifsTime 1e-05s
attr unit s
par package_delivery.node4.LoRaNic.mac slotTime 2e-05s
attr unit s
par package_delivery.node4.LoRaNic.mac difsTime 5e-05s
attr unit s
par package_delivery.node4.LoRaNic.mac ackTimeout 0.44803s
attr unit s
par package_delivery.node4.LoRaNic.mac mtu 1500
par package_delivery.node4.LoRaNic.mac cwMin 31
par package_delivery.node4.LoRaNic.mac cwMax 1023
par package_delivery.node4.LoRaNic.mac cwMulticast 31
par package_delivery.node4.LoRaNic.mac retryLimit 7
scalar package_delivery.node4.LoRaNic.mac numRetry 0
scalar package_delivery.node4.LoRaNic.mac numSentWithoutRetry 0
scalar package_delivery.node4.LoRaNic.mac numGivenUp 0
scalar package_delivery.node4.LoRaNic.mac numSent 0
scalar package_delivery.node4.LoRaNic.mac numReceived 0
scalar package_delivery.node4.LoRaNic.mac numSentBroadcast 0
scalar package_delivery.node4.LoRaNic.mac numReceivedBroadcast 0
scalar package_delivery.node4.LoRaNic.mac packetDropIncorrectlyReceived:count 0
attr interpolationmode none
attr recordingmode count
attr source packetDropReasonIsIncorrectlyReceived(packetDropped)
attr title "packet drop: incorrectly received, count"
scalar package_delivery.node4.LoRaNic.mac packetDropIncorrectlyReceived:sum(packetBytes) 0
attr interpolationmode none
attr recordingmode sum(packetBytes)
attr source packetDropReasonIsIncorrectlyReceived(packetDropped)
attr title "packet drop: incorrectly received, sum(packetBytes)"
scalar package_delivery.node4.LoRaNic.mac packetDropNotAddressedToUs:count 0
attr interpolationmode none
attr recordingmode count
attr source packetDropReasonIsNotAddressedToUs(packetDropped)
attr title "packet drop: not addressed to us, count"
scalar package_delivery.node4.LoRaNic.mac packetDropNotAddressedToUs:sum(packetBytes) 0
attr interpolationmode none
attr recordingmode sum(packetBytes)
attr source packetDropReasonIsNotAddressedToUs(packetDropped)
attr title "packet drop: not addressed to us, sum(packetBytes)"
scalar package_delivery.node4.LoRaNic.mac packetDropQueueOverflow:count 0
attr interpolationmode none
attr recordingmode count
attr source packetDropReasonIsQueueOverflow(packetDropped)
attr title "packet drop: queue overflow, count"
scalar package_delivery.node4.LoRaNic.mac packetDropQueueOverflow:sum(packetBytes) 0
attr interpolationmode none
attr recordingmode sum(packetBytes)
attr source packetDropReasonIsQueueOverflow(packetDropped)
attr title "packet drop: queue overflow, sum(packetBytes)"
scalar package_delivery.node4.LoRaNic.mac packetDropRetryLimitReached:count 0
attr interpolationmode none
attr recordingmode count
attr source packetDropReasonIsRetryLimitReached(packetDropped)
attr title "packet drop: retry limit reached, count"
scalar package_delivery.node4.LoRaNic.mac packetDropRetryLimitReached:sum(packetBytes) 0
attr interpolationmode none
attr recordingmode sum(packetBytes)
attr source packetDropReasonIsRetryLimitReached(packetDropped)
attr title "packet drop: retry limit reached, sum(packetBytes)"
scalar package_delivery.node4.LoRaNic.mac linkBroken:count 0
attr interpolationmode none
attr recordingmode count
attr source linkBroken
attr title "link break, count"
par package_delivery.node4.LoRaNic.radio.antenna typename "\"inet.physicallayer.wireless.common.antenna.IsotropicAntenna\""
par package_delivery.node4.LoRaNic.radio.antenna mobilityModule "\"^.^.^.mobility\""
par package_delivery.node4.LoRaNic.radio.antenna numAntennas 1
par package_delivery.node4.LoRaNic.radio.transmitter typename "\"flora.LoRaPhy.LoRaTransmitter\""
par package_delivery.node4.LoRaNic.radio.transmitter preambleDuration 0.001s
attr unit s
par package_delivery.node4.LoRaNic.radio.transmitter headerLength 0b
attr unit b
par package_delivery.node4.LoRaNic.radio.transmitter bitrate 250000bps
attr unit bps
par package_delivery.node4.LoRaNic.radio.transmitter power 0.025118W
attr unit W
par package_delivery.node4.LoRaNic.radio.transmitter centerFrequency 8.68e+08Hz
attr unit Hz
par package_delivery.node4.LoRaNic.radio.transmitter bandwidth 250000Hz
attr unit Hz
par package_delivery.node4.LoRaNic.radio.transmitter modulation "\"LoRaModulation\""
scalar package_delivery.node4.LoRaNic.radio.transmitter LoRaTransmissionCreated:count 0
attr recordingmode count
attr source LoRaTransmissionCreated
par package_delivery.node4.LoRaNic.radio.receiver typename "\"flora.LoRaPhy.LoRaReceiver\""
par package_delivery.node4.LoRaNic.radio.receiver snirThreshold -8dB
attr unit dB
par package_delivery.node4.LoRaNic.radio.receiver snirThresholdMode "\"min\""
attr unit min,mean
par package_delivery.node4.LoRaNic.radio.receiver energyDetection -110dBm
attr unit dBm
par package_delivery.node4.LoRaNic.radio.receiver sensitivity -137dBm
attr unit dBm
par package_delivery.node4.LoRaNic.radio.receiver centerFrequency 8.68e+08Hz
attr unit Hz
par package_delivery.node4.LoRaNic.radio.receiver bandwidth 250000Hz
attr unit Hz
par package_delivery.node4.LoRaNic.radio.receiver modulation "\"BPSK\""
par package_delivery.node4.LoRaNic.radio.receiver alohaChannelModel false
scalar package_delivery.node4.LoRaNic.radio.receiver numCollisions 0
scalar package_delivery.node4.LoRaNic.radio.receiver rcvBelowSensitivity 0
scalar package_delivery.node4.LoRaNic.radio.receiver LoRaReceptionCollision:count 0
attr recordingmode count
attr source LoRaReceptionCollision
par package_delivery.node4.LoRaNic.radio.energyConsumer typename "\"flora.LoRaEnergyModules.LoRaEnergyConsumer\""
par package_delivery.node4.LoRaNic.radio.energyConsumer energySourceModule "\"^.IdealEpEnergyStorage\""
par package_delivery.node4.LoRaNic.radio.energyConsumer offPowerConsumption 0W
attr unit W
par package_delivery.node4.LoRaNic.radio.energyConsumer sleepPowerConsumption 0.001W
attr unit W
par package_delivery.node4.LoRaNic.radio.energyConsumer switchingPowerConsumption 0.001W
attr unit W
par package_delivery.node4.LoRaNic.radio.energyConsumer receiverIdlePowerConsumption 0.002W
attr unit W
par package_delivery.node4.LoRaNic.radio.energyConsumer receiverBusyPowerConsumption 0.005W
attr unit W
par package_delivery.node4.LoRaNic.radio.energyConsumer receiverReceivingPowerConsumption 0.01W
attr unit W
par package_delivery.node4.LoRaNic.radio.energyConsumer receiverReceivingPreamblePowerConsumption 0.01W
attr unit W
par package_delivery.node4.LoRaNic.radio.energyConsumer receiverReceivingHeaderPowerConsumption 0.01W
attr unit W
par package_delivery.node4.LoRaNic.radio.energyConsumer receiverReceivingDataPowerConsumption 0.01W
attr unit W
par package_delivery.node4.LoRaNic.radio.energyConsumer transmitterIdlePowerConsumption 0.002W
attr unit W
par package_delivery.node4.LoRaNic.radio.energyConsumer transmitterTransmittingPowerConsumption 0.1W
attr unit W
par package_delivery.node4.LoRaNic.radio.energyConsumer transmitterTransmittingPreamblePowerConsumption 0.1W
attr unit W
par package_delivery.node4.LoRaNic.radio.energyConsumer transmitterTransmittingHeaderPowerConsumption 0.1W
attr unit W
par package_delivery.node4.LoRaNic.radio.energyConsumer transmitterTransmittingDataPowerConsumption 0.1W
attr unit W
par package_delivery.node4.LoRaNic.radio.energyConsumer configFile "<root>...</root> at /home/branrx/Downloads/omnetpp-6.0-linux-x86_64/omnetpp-6.0/samples/courier/simulations//energyConsumptionParameters.xml:2"
scalar package_delivery.node4.LoRaNic.radio.energyConsumer totalEnergyConsumed 0
par package_delivery.node4.LoRaNic.radio.IdealEpEnergyStorage typename "\"inet.power.storage.IdealEpEnergyStorage\""
scalar package_delivery.node4.LoRaNic.radio.IdealEpEnergyStorage residualEnergyCapacity:last nan
attr interpolationmode linear
attr recordingmode last
attr source residualEnergyCapacityChanged
attr title "Residual energy capacity, last"
par package_delivery.node4.LoRaNic.radio typename "\"flora.LoRa.LoRaRadio\""
par package_delivery.node4.LoRaNic.radio radioMediumModule "\"loRaMedium\""
par package_delivery.node4.LoRaNic.radio energySourceModule "\"^.IdealEpEnergyStorage\""
par package_delivery.node4.LoRaNic.radio initialRadioMode "\"off\""
attr enum off,sleep,receiver,transmitter,transceiver
par package_delivery.node4.LoRaNic.radio switchingTimes "\"ms 0 0 0 0 0 0 0 0 0 0 0 0 0 0 0 0 0 0 0 0 0 0 0 0 0\""
par package_delivery.node4.LoRaNic.radio sendRawBytes false
par package_delivery.node4.LoRaNic.radio separateTransmissionParts false
par package_delivery.node4.LoRaNic.radio separateReceptionParts false
par package_delivery.node4.LoRaNic.radio displayCommunicationRange false
par package_delivery.node4.LoRaNic.radio displayInterferenceRange false
par package_delivery.node4.LoRaNic.radio centerFrequency 8.68e+08Hz
attr unit Hz
par package_delivery.node4.LoRaNic.radio bandwidth 250000Hz
attr unit Hz
par package_delivery.node4.LoRaNic.radio iAmGateway false
scalar package_delivery.node4.LoRaNic.radio radioMode:count 3
attr interpolationmode sample-hold
attr recordingmode count
attr source radioModeChanged
attr title "Radio mode, count"
scalar package_delivery.node4.LoRaNic.radio receptionState:count 0
attr interpolationmode sample-hold
attr recordingmode count
attr source receptionStateChanged
attr title "Radio reception state, count"
scalar package_delivery.node4.LoRaNic.radio transmissionState:count 0
attr interpolationmode sample-hold
attr recordingmode count
attr source transmissionStateChanged
attr title "Radio transmission state, count"
statistic package_delivery.node4.LoRaNic.radio minSnir:histogram
field count 0
field mean -nan
field stddev -nan
field min -nan
field max -nan
field sum 0
field sqrsum 0
attr recordingmode histogram
attr source minimumSnir(packetSentToUpper)
attr title "Min SNIR"
bin	-inf	0
bin	0	0
bin	1	0
statistic package_delivery.node4.LoRaNic.radio packetErrorRate:histogram
field count 0
field mean -nan
field stddev -nan
field min -nan
field max -nan
field sum 0
field sqrsum 0
attr recordingmode histogram
attr source packetErrorRate(packetSentToUpper)
attr title "Packet error rate"
bin	-inf	0
bin	0	0
bin	1	0
statistic package_delivery.node4.LoRaNic.radio bitErrorRate:histogram
field count 0
field mean -nan
field stddev -nan
field min -nan
field max -nan
field sum 0
field sqrsum 0
attr recordingmode histogram
attr source bitErrorRate(packetSentToUpper)
attr title "Bit error rate"
bin	-inf	0
bin	0	0
bin	1	0
statistic package_delivery.node4.LoRaNic.radio symbolErrorRate:histogram
field count 0
field mean -nan
field stddev -nan
field min -nan
field max -nan
field sum 0
field sqrsum 0
attr recordingmode histogram
attr source symbolErrorRate(packetSentToUpper)
attr title "Symbol error rate"
bin	-inf	0
bin	0	0
bin	1	0
par package_delivery.node4.LoRaNic typename "\"flora.LoRa.LoRaNic\""
par package_delivery.node4.LoRaNic displayStringTextFormat "\"%a (%i)\\n%m\""
par package_delivery.node4.LoRaNic recordPcap false
par package_delivery.node4.LoRaNic numPcapRecorders 0
par package_delivery.node4.LoRaNic interfaceTableModule "\"package_delivery.node4.interfaceTable\""
par package_delivery.node4.LoRaNic energySourceModule "\"^.IdealEpEnergyStorage\""
par package_delivery.node4.LoRaNic protocol "\"\""
scalar package_delivery.node4.LoRaNic packetDropInterfaceDown:count 0
attr interpolationmode none
attr recordingmode count
attr source packetDropReasonIsInterfaceDown(packetDropped)
attr title "packet drops: interface down, count"
scalar package_delivery.node4.LoRaNic packetDropInterfaceDown:sum(packetBytes) 0
attr interpolationmode none
attr recordingmode sum(packetBytes)
attr source packetDropReasonIsInterfaceDown(packetDropped)
attr title "packet drops: interface down, sum(packetBytes)"
scalar package_delivery.node4.LoRaNic packetDropNoCarrier:count 0
attr interpolationmode none
attr recordingmode count
attr source packetDropReasonIsNoCarrier(packetDropped)
attr title "packet drops: no carrier, count"
scalar package_delivery.node4.LoRaNic packetDropNoCarrier:sum(packetBytes) 0
attr interpolationmode none
attr recordingmode sum(packetBytes)
attr source packetDropReasonIsNoCarrier(packetDropped)
attr title "packet drops: no carrier, sum(packetBytes)"
par package_delivery.node4.app[0] typename "\"flora.LoRa.NewApp\""
par package_delivery.node4.app[0] numberOfPacketsToSend 0
par package_delivery.node4.app[0] timeToFirstPacket exponential(1000s)
attr unit s
par package_delivery.node4.app[0] timeToNextPacket exponential(1000s)
attr unit s
par package_delivery.node4.app[0] initialLoRaTP 14dBm
attr unit dBm
par package_delivery.node4.app[0] initialLoRaCF 8.68e+08Hz
attr unit Hz
par package_delivery.node4.app[0] initialLoRaSF 12
par package_delivery.node4.app[0] initialLoRaBW 125000Hz
attr unit Hz
par package_delivery.node4.app[0] initialLoRaCR 4
par package_delivery.node4.app[0] initialUseHeader true
par package_delivery.node4.app[0] evaluateADRinNode false
par package_delivery.node4.app[0] dataSize 10B
attr unit B
par package_delivery.node4.app[0] node_id 4
par package_delivery.node4.app[0] node_seed 531
scalar package_delivery.node4.app[0] positionX 544.88317738287
scalar package_delivery.node4.app[0] positionY 847.25173725747
scalar package_delivery.node4.app[0] finalTP 14
scalar package_delivery.node4.app[0] finalSF 12
scalar package_delivery.node4.app[0] sentPackets 3
scalar package_delivery.node4.app[0] receivedADRCommands 0
scalar package_delivery.node4.app[0] LoRa_AppPacketSent:count 0
attr recordingmode count
attr source LoRa_AppPacketSent
par package_delivery.node4 typename "\"flora.LoraNode.LoRaNode\""
par package_delivery.node4 numApps 1
par package_delivery.node4 deploymentType "\"\""
par package_delivery.node4 maxGatewayDistance 320
par package_delivery.node4 gatewayX 320
par package_delivery.node4 gatewayY 320
par package_delivery typename "\"courier.simulations.package_delivery\""

