version 3
run General-0-20250610-12:54:50-71432
attr configname General
attr datetime 20250610-12:54:50
attr datetimef 20250610-125450
attr experiment General
attr inifile omnetpp.ini
attr iterationvars "$0=\"avg\""
attr iterationvarsd avg
attr iterationvarsf avg-
attr measurement "$0=\"avg\""
attr network package_delivery
attr processid 71432
attr repetition 0
attr replication #0
attr resultdir results
attr runnumber 0
attr seedset 0
config image-path ../../inet4.4/images
config network package_delivery
config **.maxTransmissionDuration 4s
config **.energyDetection -110dBm
config **.vector-recording true
config rng-class cMersenneTwister
config **.loRaGW.numUdpApps 1
config **.loRaGW.packetForwarder.localPort 2000
config **.loRaGW.packetForwarder.destPort 1000
config **.loRaGW.packetForwarder.destAddresses "\"server\""
config **.loRaGW.packetForwarder.indexNumber 0
config **.server.numApps 1
config **.server.**.evaluateADRinServer true
config **.server.app[0].typename ServerApp
config **.server.app[0].destAddresses "\"loRaGW\""
config **.server.app[0].destPort 2000
config **.server.app[0].localPort 1000
config **.server.app[0].adrMethod "\"avg\""
config **.numberOfPacketsToSend 0
config sim-time-limit 1d
config simtime-resolution -11
config repeat 30
config **.timeToFirstPacket exponential(1000s)
config **.timeToNextPacket exponential(1000s)
config **.alohaChannelModel false
config **.numberOfNodes 1
config **.constraintAreaMaxX 1000m
config **.constraintAreaMaxY 1000m
config **.node1.**.initialX 537m
config **.node1.**.initialY 519m
config **.node1.numApps 1
config **.node1.app[0].typename NewApp
config **.node1.app[0].**node_id 1
config **.node1.app[0].**node_seed 123
config **.node2.**.initialX 839m
config **.node2.**.initialY 322m
config **.node2.**.displayAddresses true
config **.node2.numApps 1
config **.node2.app[0].typename NewApp
config **.node2.app[0].**node_id 2
config **.node2.app[0].**node_seed 221
config **.node3.numApps 1
config **.node3.app[0].typename NewApp
config **.node3.app[0].**node_id 3
config **.node3.app[0].**node_seed 113
config **.node4.numApps 1
config **.node4.app[0].typename NewApp
config **.node4.app[0].**node_id 4
config **.node4.app[0].**node_seed 531
config **.**initialLoRaSF 12
config **.**initialLoRaTP 14dBm
config **.**initialLoRaBW "125 kHz"
config **.**initialLoRaCR 4
config **.**.initFromDisplayString false
config **.**.evaluateADRinNode false
config **.numberOfGateways 1
config **.loRaGW.**.initialX 546m
config **.loRaGW.**.initialY 297m
config **.LoRaNic.radio.energyConsumer.typename LoRaEnergyConsumer
config **.**.energySourceModule "\"^.IdealEpEnergyStorage\""
config **.LoRaNic.radio.energyConsumer.configFile "xmldoc(\"energyConsumptionParameters.xml\")"
config **.sigma 3.57
config **.constraintAreaMinX 0m
config **.constraintAreaMinY 0m
config **.constraintAreaMinZ 0m
config **.constraintAreaMaxZ 0m
config LoRaNetworkTest.**.radio.separateTransmissionParts false
config LoRaNetworkTest.**.radio.separateReceptionParts false
config **.ipv4Delayer.config "xmldoc(\"cloudDelays.xml\")"
config **.radio.radioMediumModule "\"loRaMedium\""
config **.loRaMedium.pathLossType "\"LoRaLogNormalShadowing\""
config **.minInterferenceTime 0s
config **.displayAddresses true
config **.loRaMedium.mediumLimitCacheType "\"LoRaMediumCache\""
config **.loRaMedium.rangeFilter "\"communicationRange\""
config **.loRaMedium.neighborCacheType "\"LoRaNeighborCache\""
config **.loRaMedium.neighborCache.range 546m
config **.loRaMedium.neighborCache.refillPeriod 3000s

vector 0 package_delivery.loRaGW.udp passedUpPk:vector(count) ETV
attr interpolationmode none
attr recordingmode vector(count)
attr source packetSentToUpper
attr title "packets passed up, count"
vector 1 package_delivery.loRaGW.udp droppedPkWrongPort:vector(count) ETV
attr interpolationmode none
attr recordingmode vector(count)
attr source packetDropReasonIsNoPortFound(packetDropped)
attr title "packets dropped (wrong port), count"
vector 2 package_delivery.loRaGW.udp droppedPkBadChecksum:vector(count) ETV
attr interpolationmode none
attr recordingmode vector(count)
attr source packetDropReasonIsIncorrectlyReceived(packetDropped)
attr title "packets dropped (checksum error), count"
vector 3 package_delivery.server.udp passedUpPk:vector(count) ETV
attr interpolationmode none
attr recordingmode vector(count)
attr source packetSentToUpper
attr title "packets passed up, count"
vector 4 package_delivery.server.udp droppedPkWrongPort:vector(count) ETV
attr interpolationmode none
attr recordingmode vector(count)
attr source packetDropReasonIsNoPortFound(packetDropped)
attr title "packets dropped (wrong port), count"
vector 5 package_delivery.server.udp droppedPkBadChecksum:vector(count) ETV
attr interpolationmode none
attr recordingmode vector(count)
attr source packetDropReasonIsIncorrectlyReceived(packetDropped)
attr title "packets dropped (checksum error), count"
vector 6 package_delivery.node1.LoRaNic.radio.IdealEpEnergyStorage powerConsumption:vector ETV
attr interpolationmode sample-hold
attr recordingmode vector
attr source powerConsumptionChanged
attr title "Power consumption"
vector 7 package_delivery.node2.LoRaNic.radio.IdealEpEnergyStorage powerConsumption:vector ETV
attr interpolationmode sample-hold
attr recordingmode vector
attr source powerConsumptionChanged
attr title "Power consumption"
vector 8 package_delivery.node3.LoRaNic.radio.IdealEpEnergyStorage powerConsumption:vector ETV
attr interpolationmode sample-hold
attr recordingmode vector
attr source powerConsumptionChanged
attr title "Power consumption"
vector 9 package_delivery.node4.LoRaNic.radio.IdealEpEnergyStorage powerConsumption:vector ETV
attr interpolationmode sample-hold
attr recordingmode vector
attr source powerConsumptionChanged
attr title "Power consumption"
vector 10 package_delivery.loRaGW.LoRaGWNic.radio radioMode:vector ETV
attr interpolationmode sample-hold
attr recordingmode vector
attr source radioModeChanged
attr title "Radio mode"
vector 11 package_delivery.node1.LoRaNic.radio radioMode:vector ETV
attr interpolationmode sample-hold
attr recordingmode vector
attr source radioModeChanged
attr title "Radio mode"
vector 12 package_delivery.node1.LoRaNic.radio.energyConsumer powerConsumption:vector ETV
attr interpolationmode sample-hold
attr recordingmode vector
attr source powerConsumptionChanged
attr title "Power consumption"
vector 13 package_delivery.node2.LoRaNic.radio radioMode:vector ETV
attr interpolationmode sample-hold
attr recordingmode vector
attr source radioModeChanged
attr title "Radio mode"
vector 14 package_delivery.node2.LoRaNic.radio.energyConsumer powerConsumption:vector ETV
attr interpolationmode sample-hold
attr recordingmode vector
attr source powerConsumptionChanged
attr title "Power consumption"
vector 15 package_delivery.node3.LoRaNic.radio radioMode:vector ETV
attr interpolationmode sample-hold
attr recordingmode vector
attr source radioModeChanged
attr title "Radio mode"
vector 16 package_delivery.node3.LoRaNic.radio.energyConsumer powerConsumption:vector ETV
attr interpolationmode sample-hold
attr recordingmode vector
attr source powerConsumptionChanged
attr title "Power consumption"
vector 17 package_delivery.node4.LoRaNic.radio radioMode:vector ETV
attr interpolationmode sample-hold
attr recordingmode vector
attr source radioModeChanged
attr title "Radio mode"
vector 18 package_delivery.node4.LoRaNic.radio.energyConsumer powerConsumption:vector ETV
attr interpolationmode sample-hold
attr recordingmode vector
attr source powerConsumptionChanged
attr title "Power consumption"
vector 19 package_delivery.loRaGW.LoRaGWNic.radio receptionState:vector ETV
attr interpolationmode sample-hold
attr recordingmode vector
attr source receptionStateChanged
attr title "Radio reception state"
vector 20 package_delivery.loRaGW.LoRaGWNic.radio transmissionState:vector ETV
attr interpolationmode sample-hold
attr recordingmode vector
attr source transmissionStateChanged
attr title "Radio transmission state"
vector 21 package_delivery.node2.app[0] "SF Vector" ETV
vector 22 package_delivery.node2.app[0] "TP Vector" ETV
vector 23 package_delivery.node2.LoRaNic.queue incomingPacketLengths:vector ETV
attr interpolationmode none
attr recordingmode vector
attr source packetLength(packetPushStarted)
attr title "incoming packet lengths"
attr unit b
vector 24 package_delivery.node2.LoRaNic.queue incomingDataRate:vector ETV
attr interpolationmode linear
attr recordingmode vector
attr source throughput(packetPushStarted)
attr title "incoming datarate"
attr unit bps
vector 25 package_delivery.node2.LoRaNic.queue queueingTime:vector ETV
attr interpolationmode none
attr recordingmode vector
attr source queueingTime(packetPulled)
attr title "queueing times"
attr unit s
vector 26 package_delivery.node2.LoRaNic.queue outgoingPacketLengths:vector ETV
attr interpolationmode none
attr recordingmode vector
attr source packetLength(packetPulled)
attr title "outgoing packet lengths"
attr unit b
vector 27 package_delivery.node2.LoRaNic.queue outgoingDataRate:vector ETV
attr interpolationmode linear
attr recordingmode vector
attr source throughput(packetPulled)
attr title "outgoing datarate"
attr unit bps
vector 28 package_delivery.node2.LoRaNic.radio.IdealEpEnergyStorage residualEnergyCapacity:vector ETV
attr interpolationmode linear
attr recordingmode vector
attr source residualEnergyCapacityChanged
attr title "Residual energy capacity"
vector 29 package_delivery.node2.LoRaNic.radio transmissionState:vector ETV
attr interpolationmode sample-hold
attr recordingmode vector
attr source transmissionStateChanged
attr title "Radio transmission state"
vector 30 package_delivery.node2.LoRaNic.queue queueLength:vector ETV
attr autoWarmupFilter false
attr interpolationmode sample-hold
attr recordingmode vector
attr source "warmup(atomic(constant0(packetPushEnded) + count(packetPushStarted) - count(packetPulled) - count(packetRemoved) - count(packetDropped)))"
attr title "queue length"
attr unit pk
vector 31 package_delivery.node2.LoRaNic.queue queueBitLength:vector ETV
attr autoWarmupFilter false
attr interpolationmode sample-hold
attr recordingmode vector
attr source "warmup(atomic(constant0(packetPushEnded) + sum(packetLength(packetPushStarted)) - sum(packetLength(packetPulled)) - sum(packetLength(packetRemoved)) - sum(packetLength(packetDropped))))"
attr title "queue bit length"
attr unit b
vector 32 package_delivery.loRaGW.udp packetSent:vector(packetBytes) ETV
attr interpolationmode none
attr recordingmode vector(packetBytes)
attr source packetSent
attr title "packets sent, packetBytes"
vector 33 package_delivery.loRaGW.ipv4.arp arpRequestSent:vector(packetBytes) ETV
attr recordingmode vector(packetBytes)
attr source arpRequestSent
attr title "ARP request sent, packetBytes"
vector 34 package_delivery.loRaGW.ethernet encapPk:vector(packetBytes) ETV
attr interpolationmode none
attr recordingmode vector(packetBytes)
attr source encapPk
attr title "packets encapsulated, packetBytes"
vector 35 package_delivery.loRaGW.eth[0].queue incomingPacketLengths:vector ETV
attr interpolationmode none
attr recordingmode vector
attr source packetLength(packetPushStarted)
attr title "incoming packet lengths"
attr unit b
vector 36 package_delivery.loRaGW.eth[0].queue incomingDataRate:vector ETV
attr interpolationmode linear
attr recordingmode vector
attr source throughput(packetPushStarted)
attr title "incoming datarate"
attr unit bps
vector 37 package_delivery.loRaGW.eth[0].queue queueingTime:vector ETV
attr interpolationmode none
attr recordingmode vector
attr source queueingTime(packetPulled)
attr title "queueing times"
attr unit s
vector 38 package_delivery.loRaGW.eth[0].queue outgoingPacketLengths:vector ETV
attr interpolationmode none
attr recordingmode vector
attr source packetLength(packetPulled)
attr title "outgoing packet lengths"
attr unit b
vector 39 package_delivery.loRaGW.eth[0].queue outgoingDataRate:vector ETV
attr interpolationmode linear
attr recordingmode vector
attr source throughput(packetPulled)
attr title "outgoing datarate"
attr unit bps
vector 40 package_delivery.loRaGW.eth[0].mac packetReceivedFromUpper:vector(packetBytes) ETV
attr interpolationmode none
attr recordingmode vector(packetBytes)
attr source packetReceivedFromUpper
attr title "packet bytes from higher layer, packetBytes"
vector 41 package_delivery.loRaGW.eth[0].queue queueLength:vector ETV
attr autoWarmupFilter false
attr interpolationmode sample-hold
attr recordingmode vector
attr source "warmup(atomic(constant0(packetPushEnded) + count(packetPushStarted) - count(packetPulled) - count(packetRemoved) - count(packetDropped)))"
attr title "queue length"
attr unit pk
vector 42 package_delivery.loRaGW.eth[0].queue queueBitLength:vector ETV
attr autoWarmupFilter false
attr interpolationmode sample-hold
attr recordingmode vector
attr source "warmup(atomic(constant0(packetPushEnded) + sum(packetLength(packetPushStarted)) - sum(packetLength(packetPulled)) - sum(packetLength(packetRemoved)) - sum(packetLength(packetDropped))))"
attr title "queue bit length"
attr unit b
vector 43 package_delivery.loRaGW.eth[0].mac txPk:vector(packetBytes) ETV
attr interpolationmode none
attr recordingmode vector(packetBytes)
attr source packetSentToLower
attr title "packets transmitted, packetBytes"
vector 44 package_delivery.myRouter.eth[1].mac rxPkOk:vector(packetBytes) ETV
attr interpolationmode none
attr recordingmode vector(packetBytes)
attr source rxPkOk
attr title "packets received OK, packetBytes"
vector 45 package_delivery.myRouter.eth[1].mac passedUpPk:vector(packetBytes) ETV
attr interpolationmode none
attr recordingmode vector(packetBytes)
attr source packetSentToUpper
attr title "packets passed to higher layer, packetBytes"
vector 46 package_delivery.myRouter.ethernet decapPk:vector(packetBytes) ETV
attr interpolationmode none
attr recordingmode vector(packetBytes)
attr source decapPk
attr title "packets decapsulated, packetBytes"
vector 47 package_delivery.myRouter.ipv4.arp arpReplySent:vector(packetBytes) ETV
attr recordingmode vector(packetBytes)
attr source arpReplySent
attr title "ARP replies sent, packetBytes"
vector 48 package_delivery.myRouter.ethernet encapPk:vector(packetBytes) ETV
attr interpolationmode none
attr recordingmode vector(packetBytes)
attr source encapPk
attr title "packets encapsulated, packetBytes"
vector 49 package_delivery.myRouter.eth[1].queue incomingPacketLengths:vector ETV
attr interpolationmode none
attr recordingmode vector
attr source packetLength(packetPushStarted)
attr title "incoming packet lengths"
attr unit b
vector 50 package_delivery.myRouter.eth[1].queue incomingDataRate:vector ETV
attr interpolationmode linear
attr recordingmode vector
attr source throughput(packetPushStarted)
attr title "incoming datarate"
attr unit bps
vector 51 package_delivery.myRouter.eth[1].queue queueingTime:vector ETV
attr interpolationmode none
attr recordingmode vector
attr source queueingTime(packetPulled)
attr title "queueing times"
attr unit s
vector 52 package_delivery.myRouter.eth[1].queue outgoingPacketLengths:vector ETV
attr interpolationmode none
attr recordingmode vector
attr source packetLength(packetPulled)
attr title "outgoing packet lengths"
attr unit b
vector 53 package_delivery.myRouter.eth[1].queue outgoingDataRate:vector ETV
attr interpolationmode linear
attr recordingmode vector
attr source throughput(packetPulled)
attr title "outgoing datarate"
attr unit bps
vector 54 package_delivery.myRouter.eth[1].mac packetReceivedFromUpper:vector(packetBytes) ETV
attr interpolationmode none
attr recordingmode vector(packetBytes)
attr source packetReceivedFromUpper
attr title "packet bytes from higher layer, packetBytes"
vector 55 package_delivery.myRouter.eth[1].queue queueLength:vector ETV
attr autoWarmupFilter false
attr interpolationmode sample-hold
attr recordingmode vector
attr source "warmup(atomic(constant0(packetPushEnded) + count(packetPushStarted) - count(packetPulled) - count(packetRemoved) - count(packetDropped)))"
attr title "queue length"
attr unit pk
vector 56 package_delivery.myRouter.eth[1].queue queueBitLength:vector ETV
attr autoWarmupFilter false
attr interpolationmode sample-hold
attr recordingmode vector
attr source "warmup(atomic(constant0(packetPushEnded) + sum(packetLength(packetPushStarted)) - sum(packetLength(packetPulled)) - sum(packetLength(packetRemoved)) - sum(packetLength(packetDropped))))"
attr title "queue bit length"
attr unit b
vector 57 package_delivery.myRouter.eth[1].mac txPk:vector(packetBytes) ETV
attr interpolationmode none
attr recordingmode vector(packetBytes)
attr source packetSentToLower
attr title "packets transmitted, packetBytes"
vector 58 package_delivery.loRaGW.eth[0].mac rxPkOk:vector(packetBytes) ETV
attr interpolationmode none
attr recordingmode vector(packetBytes)
attr source rxPkOk
attr title "packets received OK, packetBytes"
vector 59 package_delivery.loRaGW.eth[0].mac passedUpPk:vector(packetBytes) ETV
attr interpolationmode none
attr recordingmode vector(packetBytes)
attr source packetSentToUpper
attr title "packets passed to higher layer, packetBytes"
vector 60 package_delivery.loRaGW.ethernet decapPk:vector(packetBytes) ETV
attr interpolationmode none
attr recordingmode vector(packetBytes)
attr source decapPk
attr title "packets decapsulated, packetBytes"
vector 61 package_delivery.myRouter.ipv4.arp arpRequestSent:vector(packetBytes) ETV
attr recordingmode vector(packetBytes)
attr source arpRequestSent
attr title "ARP request sent, packetBytes"
vector 62 package_delivery.myRouter.eth[0].queue incomingPacketLengths:vector ETV
attr interpolationmode none
attr recordingmode vector
attr source packetLength(packetPushStarted)
attr title "incoming packet lengths"
attr unit b
vector 63 package_delivery.myRouter.eth[0].queue incomingDataRate:vector ETV
attr interpolationmode linear
attr recordingmode vector
attr source throughput(packetPushStarted)
attr title "incoming datarate"
attr unit bps
vector 64 package_delivery.myRouter.eth[0].queue queueingTime:vector ETV
attr interpolationmode none
attr recordingmode vector
attr source queueingTime(packetPulled)
attr title "queueing times"
attr unit s
vector 65 package_delivery.myRouter.eth[0].queue outgoingPacketLengths:vector ETV
attr interpolationmode none
attr recordingmode vector
attr source packetLength(packetPulled)
attr title "outgoing packet lengths"
attr unit b
vector 66 package_delivery.myRouter.eth[0].queue outgoingDataRate:vector ETV
attr interpolationmode linear
attr recordingmode vector
attr source throughput(packetPulled)
attr title "outgoing datarate"
attr unit bps
vector 67 package_delivery.myRouter.eth[0].mac packetReceivedFromUpper:vector(packetBytes) ETV
attr interpolationmode none
attr recordingmode vector(packetBytes)
attr source packetReceivedFromUpper
attr title "packet bytes from higher layer, packetBytes"
vector 68 package_delivery.myRouter.eth[0].queue queueLength:vector ETV
attr autoWarmupFilter false
attr interpolationmode sample-hold
attr recordingmode vector
attr source "warmup(atomic(constant0(packetPushEnded) + count(packetPushStarted) - count(packetPulled) - count(packetRemoved) - count(packetDropped)))"
attr title "queue length"
attr unit pk
vector 69 package_delivery.myRouter.eth[0].queue queueBitLength:vector ETV
attr autoWarmupFilter false
attr interpolationmode sample-hold
attr recordingmode vector
attr source "warmup(atomic(constant0(packetPushEnded) + sum(packetLength(packetPushStarted)) - sum(packetLength(packetPulled)) - sum(packetLength(packetRemoved)) - sum(packetLength(packetDropped))))"
attr title "queue bit length"
attr unit b
vector 70 package_delivery.myRouter.eth[0].mac txPk:vector(packetBytes) ETV
attr interpolationmode none
attr recordingmode vector(packetBytes)
attr source packetSentToLower
attr title "packets transmitted, packetBytes"
vector 71 package_delivery.server.eth[0].mac rxPkOk:vector(packetBytes) ETV
attr interpolationmode none
attr recordingmode vector(packetBytes)
attr source rxPkOk
attr title "packets received OK, packetBytes"
vector 72 package_delivery.server.eth[0].mac passedUpPk:vector(packetBytes) ETV
attr interpolationmode none
attr recordingmode vector(packetBytes)
attr source packetSentToUpper
attr title "packets passed to higher layer, packetBytes"
vector 73 package_delivery.server.ethernet decapPk:vector(packetBytes) ETV
attr interpolationmode none
attr recordingmode vector(packetBytes)
attr source decapPk
attr title "packets decapsulated, packetBytes"
vector 74 package_delivery.server.ipv4.arp arpReplySent:vector(packetBytes) ETV
attr recordingmode vector(packetBytes)
attr source arpReplySent
attr title "ARP replies sent, packetBytes"
vector 75 package_delivery.server.ethernet encapPk:vector(packetBytes) ETV
attr interpolationmode none
attr recordingmode vector(packetBytes)
attr source encapPk
attr title "packets encapsulated, packetBytes"
vector 76 package_delivery.server.eth[0].queue incomingPacketLengths:vector ETV
attr interpolationmode none
attr recordingmode vector
attr source packetLength(packetPushStarted)
attr title "incoming packet lengths"
attr unit b
vector 77 package_delivery.server.eth[0].queue incomingDataRate:vector ETV
attr interpolationmode linear
attr recordingmode vector
attr source throughput(packetPushStarted)
attr title "incoming datarate"
attr unit bps
vector 78 package_delivery.server.eth[0].queue queueingTime:vector ETV
attr interpolationmode none
attr recordingmode vector
attr source queueingTime(packetPulled)
attr title "queueing times"
attr unit s
vector 79 package_delivery.server.eth[0].queue outgoingPacketLengths:vector ETV
attr interpolationmode none
attr recordingmode vector
attr source packetLength(packetPulled)
attr title "outgoing packet lengths"
attr unit b
vector 80 package_delivery.server.eth[0].queue outgoingDataRate:vector ETV
attr interpolationmode linear
attr recordingmode vector
attr source throughput(packetPulled)
attr title "outgoing datarate"
attr unit bps
vector 81 package_delivery.server.eth[0].mac packetReceivedFromUpper:vector(packetBytes) ETV
attr interpolationmode none
attr recordingmode vector(packetBytes)
attr source packetReceivedFromUpper
attr title "packet bytes from higher layer, packetBytes"
vector 82 package_delivery.server.eth[0].queue queueLength:vector ETV
attr autoWarmupFilter false
attr interpolationmode sample-hold
attr recordingmode vector
attr source "warmup(atomic(constant0(packetPushEnded) + count(packetPushStarted) - count(packetPulled) - count(packetRemoved) - count(packetDropped)))"
attr title "queue length"
attr unit pk
vector 83 package_delivery.server.eth[0].queue queueBitLength:vector ETV
attr autoWarmupFilter false
attr interpolationmode sample-hold
attr recordingmode vector
attr source "warmup(atomic(constant0(packetPushEnded) + sum(packetLength(packetPushStarted)) - sum(packetLength(packetPulled)) - sum(packetLength(packetRemoved)) - sum(packetLength(packetDropped))))"
attr title "queue bit length"
attr unit b
vector 84 package_delivery.server.eth[0].mac txPk:vector(packetBytes) ETV
attr interpolationmode none
attr recordingmode vector(packetBytes)
attr source packetSentToLower
attr title "packets transmitted, packetBytes"
vector 85 package_delivery.myRouter.eth[0].mac rxPkOk:vector(packetBytes) ETV
attr interpolationmode none
attr recordingmode vector(packetBytes)
attr source rxPkOk
attr title "packets received OK, packetBytes"
vector 86 package_delivery.myRouter.eth[0].mac passedUpPk:vector(packetBytes) ETV
attr interpolationmode none
attr recordingmode vector(packetBytes)
attr source packetSentToUpper
attr title "packets passed to higher layer, packetBytes"
0	0	0	0
1	0	0	0
2	0	0	0
3	0	0	0
4	0	0	0
5	0	0	0
6	0	0	0
6	0	0	0
6	0	0	0
6	0	0	0
7	0	0	0
7	0	0	0
7	0	0	0
7	0	0	0
7	41	935	0.1452
7	41	935	0.1452
7	42	935	0.1452
7	42	935	0.1452
7	47	936.712128	0
7	47	936.712128	0
7	47	936.712128	0
7	47	936.712128	0
8	0	0	0
8	0	0	0
8	0	0	0
8	0	0	0
9	0	0	0
9	0	0	0
9	0	0	0
9	0	0	0
10	0	0	0
10	0	0	0
10	0	0	4
11	0	0	0
11	0	0	0
11	0	0	1
12	0	0	0
12	0	0	0
12	0	0	0
13	0	0	0
13	0	0	0
13	0	0	1
13	41	935	3
13	47	936.712128	1
14	0	0	0
14	0	0	0
14	0	0	0
14	41	935	0.1452
14	41	935	0.1452
14	42	935	0.1452
14	42	935	0.1452
14	47	936.712128	0
14	47	936.712128	0
14	47	936.712128	0
14	47	936.712128	0
15	0	0	0
15	0	0	0
15	0	0	1
16	0	0	0
16	0	0	0
16	0	0	0
17	0	0	0
17	0	0	0
17	0	0	1
18	0	0	0
18	0	0	0
18	0	0	0
19	0	0	1
20	0	0	1
21	40	935	12
22	40	935	14
23	41	935	80
24	41	0.1	0
24	41	0.2	0
24	41	0.3	0
24	41	0.4	0
24	41	0.5	0
24	41	0.6	0
24	41	0.7	0
24	41	0.8	0
24	41	0.9	0
24	41	1	0
24	41	1.1	0
24	41	1.2	0
24	41	1.3	0
24	41	1.4	0
24	41	1.5	0
24	41	1.6	0
24	41	1.7	0
24	41	1.8	0
24	41	1.9	0
24	41	2	0
24	41	2.1	0
24	41	2.2	0
24	41	2.3	0
24	41	2.4	0
24	41	2.5	0
24	41	2.6	0
24	41	2.7	0
24	41	2.8	0
24	41	2.9	0
24	41	3	0
24	41	3.1	0
24	41	3.2	0
24	41	3.3	0
24	41	3.4	0
24	41	3.5	0
24	41	3.6	0
24	41	3.7	0
24	41	3.8	0
24	41	3.9	0
24	41	4	0
24	41	4.1	0
24	41	4.2	0
24	41	4.3	0
24	41	4.4	0
24	41	4.5	0
24	41	4.6	0
24	41	4.7	0
24	41	4.8	0
24	41	4.9	0
24	41	5	0
24	41	5.1	0
24	41	5.2	0
24	41	5.3	0
24	41	5.4	0
24	41	5.5	0
24	41	5.6	0
24	41	5.7	0
24	41	5.8	0
24	41	5.9	0
24	41	6	0
24	41	6.1	0
24	41	6.2	0
24	41	6.3	0
24	41	6.4	0
24	41	6.5	0
24	41	6.6	0
24	41	6.7	0
24	41	6.8	0
24	41	6.9	0
24	41	7	0
24	41	7.1	0
24	41	7.2	0
24	41	7.3	0
24	41	7.4	0
24	41	7.5	0
24	41	7.6	0
24	41	7.7	0
24	41	7.8	0
24	41	7.9	0
24	41	8	0
24	41	8.1	0
24	41	8.2	0
24	41	8.3	0
24	41	8.4	0
24	41	8.5	0
24	41	8.6	0
24	41	8.7	0
24	41	8.8	0
24	41	8.9	0
24	41	9	0
24	41	9.1	0
24	41	9.2	0
24	41	9.3	0
24	41	9.4	0
24	41	9.5	0
24	41	9.6	0
24	41	9.7	0
24	41	9.8	0
24	41	9.9	0
24	41	10	0
24	41	10.1	0
24	41	10.2	0
24	41	10.3	0
24	41	10.4	0
24	41	10.5	0
24	41	10.6	0
24	41	10.7	0
24	41	10.8	0
24	41	10.9	0
24	41	11	0
24	41	11.1	0
24	41	11.2	0
24	41	11.3	0
24	41	11.4	0
24	41	11.5	0
24	41	11.6	0
24	41	11.7	0
24	41	11.8	0
24	41	11.9	0
24	41	12	0
24	41	12.1	0
24	41	12.2	0
24	41	12.3	0
24	41	12.4	0
24	41	12.5	0
24	41	12.6	0
24	41	12.7	0
24	41	12.8	0
24	41	12.9	0
24	41	13	0
24	41	13.1	0
24	41	13.2	0
24	41	13.3	0
24	41	13.4	0
24	41	13.5	0
24	41	13.6	0
24	41	13.7	0
24	41	13.8	0
24	41	13.9	0
24	41	14	0
24	41	14.1	0
24	41	14.2	0
24	41	14.3	0
24	41	14.4	0
24	41	14.5	0
24	41	14.6	0
24	41	14.7	0
24	41	14.8	0
24	41	14.9	0
24	41	15	0
24	41	15.1	0
24	41	15.2	0
24	41	15.3	0
24	41	15.4	0
24	41	15.5	0
24	41	15.6	0
24	41	15.7	0
24	41	15.8	0
24	41	15.9	0
24	41	16	0
24	41	16.1	0
24	41	16.2	0
24	41	16.3	0
24	41	16.4	0
24	41	16.5	0
24	41	16.6	0
24	41	16.7	0
24	41	16.8	0
24	41	16.9	0
24	41	17	0
24	41	17.1	0
24	41	17.2	0
24	41	17.3	0
24	41	17.4	0
24	41	17.5	0
24	41	17.6	0
24	41	17.7	0
24	41	17.8	0
24	41	17.9	0
24	41	18	0
24	41	18.1	0
24	41	18.2	0
24	41	18.3	0
24	41	18.4	0
24	41	18.5	0
24	41	18.6	0
24	41	18.7	0
24	41	18.8	0
24	41	18.9	0
24	41	19	0
24	41	19.1	0
24	41	19.2	0
24	41	19.3	0
24	41	19.4	0
24	41	19.5	0
24	41	19.6	0
24	41	19.7	0
24	41	19.8	0
24	41	19.9	0
24	41	20	0
24	41	20.1	0
24	41	20.2	0
24	41	20.3	0
24	41	20.4	0
24	41	20.5	0
24	41	20.6	0
24	41	20.7	0
24	41	20.8	0
24	41	20.9	0
24	41	21	0
24	41	21.1	0
24	41	21.2	0
24	41	21.3	0
24	41	21.4	0
24	41	21.5	0
24	41	21.6	0
24	41	21.7	0
24	41	21.8	0
24	41	21.9	0
24	41	22	0
24	41	22.1	0
24	41	22.2	0
24	41	22.3	0
24	41	22.4	0
24	41	22.5	0
24	41	22.6	0
24	41	22.7	0
24	41	22.8	0
24	41	22.9	0
24	41	23	0
24	41	23.1	0
24	41	23.2	0
24	41	23.3	0
24	41	23.4	0
24	41	23.5	0
24	41	23.6	0
24	41	23.7	0
24	41	23.8	0
24	41	23.9	0
24	41	24	0
24	41	24.1	0
24	41	24.2	0
24	41	24.3	0
24	41	24.4	0
24	41	24.5	0
24	41	24.6	0
24	41	24.7	0
24	41	24.8	0
24	41	24.9	0
24	41	25	0
24	41	25.1	0
24	41	25.2	0
24	41	25.3	0
24	41	25.4	0
24	41	25.5	0
24	41	25.6	0
24	41	25.7	0
24	41	25.8	0
24	41	25.9	0
24	41	26	0
24	41	26.1	0
24	41	26.2	0
24	41	26.3	0
24	41	26.4	0
24	41	26.5	0
24	41	26.6	0
24	41	26.7	0
24	41	26.8	0
24	41	26.9	0
24	41	27	0
24	41	27.1	0
24	41	27.2	0
24	41	27.3	0
24	41	27.4	0
24	41	27.5	0
24	41	27.6	0
24	41	27.7	0
24	41	27.8	0
24	41	27.9	0
24	41	28	0
24	41	28.1	0
24	41	28.2	0
24	41	28.3	0
24	41	28.4	0
24	41	28.5	0
24	41	28.6	0
24	41	28.7	0
24	41	28.8	0
24	41	28.9	0
24	41	29	0
24	41	29.1	0
24	41	29.2	0
24	41	29.3	0
24	41	29.4	0
24	41	29.5	0
24	41	29.6	0
24	41	29.7	0
24	41	29.8	0
24	41	29.9	0
24	41	30	0
24	41	30.1	0
24	41	30.2	0
24	41	30.3	0
24	41	30.4	0
24	41	30.5	0
24	41	30.6	0
24	41	30.7	0
24	41	30.8	0
24	41	30.9	0
24	41	31	0
24	41	31.1	0
24	41	31.2	0
24	41	31.3	0
24	41	31.4	0
24	41	31.5	0
24	41	31.6	0
24	41	31.7	0
24	41	31.8	0
24	41	31.9	0
24	41	32	0
24	41	32.1	0
24	41	32.2	0
24	41	32.3	0
24	41	32.4	0
24	41	32.5	0
24	41	32.6	0
24	41	32.7	0
24	41	32.8	0
24	41	32.9	0
24	41	33	0
24	41	33.1	0
24	41	33.2	0
24	41	33.3	0
24	41	33.4	0
24	41	33.5	0
24	41	33.6	0
24	41	33.7	0
24	41	33.8	0
24	41	33.9	0
24	41	34	0
24	41	34.1	0
24	41	34.2	0
24	41	34.3	0
24	41	34.4	0
24	41	34.5	0
24	41	34.6	0
24	41	34.7	0
24	41	34.8	0
24	41	34.9	0
24	41	35	0
24	41	35.1	0
24	41	35.2	0
24	41	35.3	0
24	41	35.4	0
24	41	35.5	0
24	41	35.6	0
24	41	35.7	0
24	41	35.8	0
24	41	35.9	0
24	41	36	0
24	41	36.1	0
24	41	36.2	0
24	41	36.3	0
24	41	36.4	0
24	41	36.5	0
24	41	36.6	0
24	41	36.7	0
24	41	36.8	0
24	41	36.9	0
24	41	37	0
24	41	37.1	0
24	41	37.2	0
24	41	37.3	0
24	41	37.4	0
24	41	37.5	0
24	41	37.6	0
24	41	37.7	0
24	41	37.8	0
24	41	37.9	0
24	41	38	0
24	41	38.1	0
24	41	38.2	0
24	41	38.3	0
24	41	38.4	0
24	41	38.5	0
24	41	38.6	0
24	41	38.7	0
24	41	38.8	0
24	41	38.9	0
24	41	39	0
24	41	39.1	0
24	41	39.2	0
24	41	39.3	0
24	41	39.4	0
24	41	39.5	0
24	41	39.6	0
24	41	39.7	0
24	41	39.8	0
24	41	39.9	0
24	41	40	0
24	41	40.1	0
24	41	40.2	0
24	41	40.3	0
24	41	40.4	0
24	41	40.5	0
24	41	40.6	0
24	41	40.7	0
24	41	40.8	0
24	41	40.9	0
24	41	41	0
24	41	41.1	0
24	41	41.2	0
24	41	41.3	0
24	41	41.4	0
24	41	41.5	0
24	41	41.6	0
24	41	41.7	0
24	41	41.8	0
24	41	41.9	0
24	41	42	0
24	41	42.1	0
24	41	42.2	0
24	41	42.3	0
24	41	42.4	0
24	41	42.5	0
24	41	42.6	0
24	41	42.7	0
24	41	42.8	0
24	41	42.9	0
24	41	43	0
24	41	43.1	0
24	41	43.2	0
24	41	43.3	0
24	41	43.4	0
24	41	43.5	0
24	41	43.6	0
24	41	43.7	0
24	41	43.8	0
24	41	43.9	0
24	41	44	0
24	41	44.1	0
24	41	44.2	0
24	41	44.3	0
24	41	44.4	0
24	41	44.5	0
24	41	44.6	0
24	41	44.7	0
24	41	44.8	0
24	41	44.9	0
24	41	45	0
24	41	45.1	0
24	41	45.2	0
24	41	45.3	0
24	41	45.4	0
24	41	45.5	0
24	41	45.6	0
24	41	45.7	0
24	41	45.8	0
24	41	45.9	0
24	41	46	0
24	41	46.1	0
24	41	46.2	0
24	41	46.3	0
24	41	46.4	0
24	41	46.5	0
24	41	46.6	0
24	41	46.7	0
24	41	46.8	0
24	41	46.9	0
24	41	47	0
24	41	47.1	0
24	41	47.2	0
24	41	47.3	0
24	41	47.4	0
24	41	47.5	0
24	41	47.6	0
24	41	47.7	0
24	41	47.8	0
24	41	47.9	0
24	41	48	0
24	41	48.1	0
24	41	48.2	0
24	41	48.3	0
24	41	48.4	0
24	41	48.5	0
24	41	48.6	0
24	41	48.7	0
24	41	48.8	0
24	41	48.9	0
24	41	49	0
24	41	49.1	0
24	41	49.2	0
24	41	49.3	0
24	41	49.4	0
24	41	49.5	0
24	41	49.6	0
24	41	49.7	0
24	41	49.8	0
24	41	49.9	0
24	41	50	0
24	41	50.1	0
24	41	50.2	0
24	41	50.3	0
24	41	50.4	0
24	41	50.5	0
24	41	50.6	0
24	41	50.7	0
24	41	50.8	0
24	41	50.9	0
24	41	51	0
24	41	51.1	0
24	41	51.2	0
24	41	51.3	0
24	41	51.4	0
24	41	51.5	0
24	41	51.6	0
24	41	51.7	0
24	41	51.8	0
24	41	51.9	0
24	41	52	0
24	41	52.1	0
24	41	52.2	0
24	41	52.3	0
24	41	52.4	0
24	41	52.5	0
24	41	52.6	0
24	41	52.7	0
24	41	52.8	0
24	41	52.9	0
24	41	53	0
24	41	53.1	0
24	41	53.2	0
24	41	53.3	0
24	41	53.4	0
24	41	53.5	0
24	41	53.6	0
24	41	53.7	0
24	41	53.8	0
24	41	53.9	0
24	41	54	0
24	41	54.1	0
24	41	54.2	0
24	41	54.3	0
24	41	54.4	0
24	41	54.5	0
24	41	54.6	0
24	41	54.7	0
24	41	54.8	0
24	41	54.9	0
24	41	55	0
24	41	55.1	0
24	41	55.2	0
24	41	55.3	0
24	41	55.4	0
24	41	55.5	0
24	41	55.6	0
24	41	55.7	0
24	41	55.8	0
24	41	55.9	0
24	41	56	0
24	41	56.1	0
24	41	56.2	0
24	41	56.3	0
24	41	56.4	0
24	41	56.5	0
24	41	56.6	0
24	41	56.7	0
24	41	56.8	0
24	41	56.9	0
24	41	57	0
24	41	57.1	0
24	41	57.2	0
24	41	57.3	0
24	41	57.4	0
24	41	57.5	0
24	41	57.6	0
24	41	57.7	0
24	41	57.8	0
24	41	57.9	0
24	41	58	0
24	41	58.1	0
24	41	58.2	0
24	41	58.3	0
24	41	58.4	0
24	41	58.5	0
24	41	58.6	0
24	41	58.7	0
24	41	58.8	0
24	41	58.9	0
24	41	59	0
24	41	59.1	0
24	41	59.2	0
24	41	59.3	0
24	41	59.4	0
24	41	59.5	0
24	41	59.6	0
24	41	59.7	0
24	41	59.8	0
24	41	59.9	0
24	41	60	0
24	41	60.1	0
24	41	60.2	0
24	41	60.3	0
24	41	60.4	0
24	41	60.5	0
24	41	60.6	0
24	41	60.7	0
24	41	60.8	0
24	41	60.9	0
24	41	61	0
24	41	61.1	0
24	41	61.2	0
24	41	61.3	0
24	41	61.4	0
24	41	61.5	0
24	41	61.6	0
24	41	61.7	0
24	41	61.8	0
24	41	61.9	0
24	41	62	0
24	41	62.1	0
24	41	62.2	0
24	41	62.3	0
24	41	62.4	0
24	41	62.5	0
24	41	62.6	0
24	41	62.7	0
24	41	62.8	0
24	41	62.9	0
24	41	63	0
24	41	63.1	0
24	41	63.2	0
24	41	63.3	0
24	41	63.4	0
24	41	63.5	0
24	41	63.6	0
24	41	63.7	0
24	41	63.8	0
24	41	63.9	0
24	41	64	0
24	41	64.1	0
24	41	64.2	0
24	41	64.3	0
24	41	64.4	0
24	41	64.5	0
24	41	64.6	0
24	41	64.7	0
24	41	64.8	0
24	41	64.9	0
24	41	65	0
24	41	65.1	0
24	41	65.2	0
24	41	65.3	0
24	41	65.4	0
24	41	65.5	0
24	41	65.6	0
24	41	65.7	0
24	41	65.8	0
24	41	65.9	0
24	41	66	0
24	41	66.1	0
24	41	66.2	0
24	41	66.3	0
24	41	66.4	0
24	41	66.5	0
24	41	66.6	0
24	41	66.7	0
24	41	66.8	0
24	41	66.9	0
24	41	67	0
24	41	67.1	0
24	41	67.2	0
24	41	67.3	0
24	41	67.4	0
24	41	67.5	0
24	41	67.6	0
24	41	67.7	0
24	41	67.8	0
24	41	67.9	0
24	41	68	0
24	41	68.1	0
24	41	68.2	0
24	41	68.3	0
24	41	68.4	0
24	41	68.5	0
24	41	68.6	0
24	41	68.7	0
24	41	68.8	0
24	41	68.9	0
24	41	69	0
24	41	69.1	0
24	41	69.2	0
24	41	69.3	0
24	41	69.4	0
24	41	69.5	0
24	41	69.6	0
24	41	69.7	0
24	41	69.8	0
24	41	69.9	0
24	41	70	0
24	41	70.1	0
24	41	70.2	0
24	41	70.3	0
24	41	70.4	0
24	41	70.5	0
24	41	70.6	0
24	41	70.7	0
24	41	70.8	0
24	41	70.9	0
24	41	71	0
24	41	71.1	0
24	41	71.2	0
24	41	71.3	0
24	41	71.4	0
24	41	71.5	0
24	41	71.6	0
24	41	71.7	0
24	41	71.8	0
24	41	71.9	0
24	41	72	0
24	41	72.1	0
24	41	72.2	0
24	41	72.3	0
24	41	72.4	0
24	41	72.5	0
24	41	72.6	0
24	41	72.7	0
24	41	72.8	0
24	41	72.9	0
24	41	73	0
24	41	73.1	0
24	41	73.2	0
24	41	73.3	0
24	41	73.4	0
24	41	73.5	0
24	41	73.6	0
24	41	73.7	0
24	41	73.8	0
24	41	73.9	0
24	41	74	0
24	41	74.1	0
24	41	74.2	0
24	41	74.3	0
24	41	74.4	0
24	41	74.5	0
24	41	74.6	0
24	41	74.7	0
24	41	74.8	0
24	41	74.9	0
24	41	75	0
24	41	75.1	0
24	41	75.2	0
24	41	75.3	0
24	41	75.4	0
24	41	75.5	0
24	41	75.6	0
24	41	75.7	0
24	41	75.8	0
24	41	75.9	0
24	41	76	0
24	41	76.1	0
24	41	76.2	0
24	41	76.3	0
24	41	76.4	0
24	41	76.5	0
24	41	76.6	0
24	41	76.7	0
24	41	76.8	0
24	41	76.9	0
24	41	77	0
24	41	77.1	0
24	41	77.2	0
24	41	77.3	0
24	41	77.4	0
24	41	77.5	0
24	41	77.6	0
24	41	77.7	0
24	41	77.8	0
24	41	77.9	0
24	41	78	0
24	41	78.1	0
24	41	78.2	0
24	41	78.3	0
24	41	78.4	0
24	41	78.5	0
24	41	78.6	0
24	41	78.7	0
24	41	78.8	0
24	41	78.9	0
24	41	79	0
24	41	79.1	0
24	41	79.2	0
24	41	79.3	0
24	41	79.4	0
24	41	79.5	0
24	41	79.6	0
24	41	79.7	0
24	41	79.8	0
24	41	79.9	0
24	41	80	0
24	41	80.1	0
24	41	80.2	0
24	41	80.3	0
24	41	80.4	0
24	41	80.5	0
24	41	80.6	0
24	41	80.7	0
24	41	80.8	0
24	41	80.9	0
24	41	81	0
24	41	81.1	0
24	41	81.2	0
24	41	81.3	0
24	41	81.4	0
24	41	81.5	0
24	41	81.6	0
24	41	81.7	0
24	41	81.8	0
24	41	81.9	0
24	41	82	0
24	41	82.1	0
24	41	82.2	0
24	41	82.3	0
24	41	82.4	0
24	41	82.5	0
24	41	82.6	0
24	41	82.7	0
24	41	82.8	0
24	41	82.9	0
24	41	83	0
24	41	83.1	0
24	41	83.2	0
24	41	83.3	0
24	41	83.4	0
24	41	83.5	0
24	41	83.6	0
24	41	83.7	0
24	41	83.8	0
24	41	83.9	0
24	41	84	0
24	41	84.1	0
24	41	84.2	0
24	41	84.3	0
24	41	84.4	0
24	41	84.5	0
24	41	84.6	0
24	41	84.7	0
24	41	84.8	0
24	41	84.9	0
24	41	85	0
24	41	85.1	0
24	41	85.2	0
24	41	85.3	0
24	41	85.4	0
24	41	85.5	0
24	41	85.6	0
24	41	85.7	0
24	41	85.8	0
24	41	85.9	0
24	41	86	0
24	41	86.1	0
24	41	86.2	0
24	41	86.3	0
24	41	86.4	0
24	41	86.5	0
24	41	86.6	0
24	41	86.7	0
24	41	86.8	0
24	41	86.9	0
24	41	87	0
24	41	87.1	0
24	41	87.2	0
24	41	87.3	0
24	41	87.4	0
24	41	87.5	0
24	41	87.6	0
24	41	87.7	0
24	41	87.8	0
24	41	87.9	0
24	41	88	0
24	41	88.1	0
24	41	88.2	0
24	41	88.3	0
24	41	88.4	0
24	41	88.5	0
24	41	88.6	0
24	41	88.7	0
24	41	88.8	0
24	41	88.9	0
24	41	89	0
24	41	89.1	0
24	41	89.2	0
24	41	89.3	0
24	41	89.4	0
24	41	89.5	0
24	41	89.6	0
24	41	89.7	0
24	41	89.8	0
24	41	89.9	0
24	41	90	0
24	41	90.1	0
24	41	90.2	0
24	41	90.3	0
24	41	90.4	0
24	41	90.5	0
24	41	90.6	0
24	41	90.7	0
24	41	90.8	0
24	41	90.9	0
24	41	91	0
24	41	91.1	0
24	41	91.2	0
24	41	91.3	0
24	41	91.4	0
24	41	91.5	0
24	41	91.6	0
24	41	91.7	0
24	41	91.8	0
24	41	91.9	0
24	41	92	0
24	41	92.1	0
24	41	92.2	0
24	41	92.3	0
24	41	92.4	0
24	41	92.5	0
24	41	92.6	0
24	41	92.7	0
24	41	92.8	0
24	41	92.9	0
24	41	93	0
24	41	93.1	0
24	41	93.2	0
24	41	93.3	0
24	41	93.4	0
24	41	93.5	0
24	41	93.6	0
24	41	93.7	0
24	41	93.8	0
24	41	93.9	0
24	41	94	0
24	41	94.1	0
24	41	94.2	0
24	41	94.3	0
24	41	94.4	0
24	41	94.5	0
24	41	94.6	0
24	41	94.7	0
24	41	94.8	0
24	41	94.9	0
24	41	95	0
24	41	95.1	0
24	41	95.2	0
24	41	95.3	0
24	41	95.4	0
24	41	95.5	0
24	41	95.6	0
24	41	95.7	0
24	41	95.8	0
24	41	95.9	0
24	41	96	0
24	41	96.1	0
24	41	96.2	0
24	41	96.3	0
24	41	96.4	0
24	41	96.5	0
24	41	96.6	0
24	41	96.7	0
24	41	96.8	0
24	41	96.9	0
24	41	97	0
24	41	97.1	0
24	41	97.2	0
24	41	97.3	0
24	41	97.4	0
24	41	97.5	0
24	41	97.6	0
24	41	97.7	0
24	41	97.8	0
24	41	97.9	0
24	41	98	0
24	41	98.1	0
24	41	98.2	0
24	41	98.3	0
24	41	98.4	0
24	41	98.5	0
24	41	98.6	0
24	41	98.7	0
24	41	98.8	0
24	41	98.9	0
24	41	99	0
24	41	99.1	0
24	41	99.2	0
24	41	99.3	0
24	41	99.4	0
24	41	99.5	0
24	41	99.6	0
24	41	99.7	0
24	41	99.8	0
24	41	99.9	0
24	41	100	0
24	41	100.1	0
24	41	100.2	0
24	41	100.3	0
24	41	100.4	0
24	41	100.5	0
24	41	100.6	0
24	41	100.7	0
24	41	100.8	0
24	41	100.9	0
24	41	101	0
24	41	101.1	0
24	41	101.2	0
24	41	101.3	0
24	41	101.4	0
24	41	101.5	0
24	41	101.6	0
24	41	101.7	0
24	41	101.8	0
24	41	101.9	0
24	41	102	0
24	41	102.1	0
24	41	102.2	0
24	41	102.3	0
24	41	102.4	0
24	41	102.5	0
24	41	102.6	0
24	41	102.7	0
24	41	102.8	0
24	41	102.9	0
24	41	103	0
24	41	103.1	0
24	41	103.2	0
24	41	103.3	0
24	41	103.4	0
24	41	103.5	0
24	41	103.6	0
24	41	103.7	0
24	41	103.8	0
24	41	103.9	0
24	41	104	0
24	41	104.1	0
24	41	104.2	0
24	41	104.3	0
24	41	104.4	0
24	41	104.5	0
24	41	104.6	0
24	41	104.7	0
24	41	104.8	0
24	41	104.9	0
24	41	105	0
24	41	105.1	0
24	41	105.2	0
24	41	105.3	0
24	41	105.4	0
24	41	105.5	0
24	41	105.6	0
24	41	105.7	0
24	41	105.8	0
24	41	105.9	0
24	41	106	0
24	41	106.1	0
24	41	106.2	0
24	41	106.3	0
24	41	106.4	0
24	41	106.5	0
24	41	106.6	0
24	41	106.7	0
24	41	106.8	0
24	41	106.9	0
24	41	107	0
24	41	107.1	0
24	41	107.2	0
24	41	107.3	0
24	41	107.4	0
24	41	107.5	0
24	41	107.6	0
24	41	107.7	0
24	41	107.8	0
24	41	107.9	0
24	41	108	0
24	41	108.1	0
24	41	108.2	0
24	41	108.3	0
24	41	108.4	0
24	41	108.5	0
24	41	108.6	0
24	41	108.7	0
24	41	108.8	0
24	41	108.9	0
24	41	109	0
24	41	109.1	0
24	41	109.2	0
24	41	109.3	0
24	41	109.4	0
24	41	109.5	0
24	41	109.6	0
24	41	109.7	0
24	41	109.8	0
24	41	109.9	0
24	41	110	0
24	41	110.1	0
24	41	110.2	0
24	41	110.3	0
24	41	110.4	0
24	41	110.5	0
24	41	110.6	0
24	41	110.7	0
24	41	110.8	0
24	41	110.9	0
24	41	111	0
24	41	111.1	0
24	41	111.2	0
24	41	111.3	0
24	41	111.4	0
24	41	111.5	0
24	41	111.6	0
24	41	111.7	0
24	41	111.8	0
24	41	111.9	0
24	41	112	0
24	41	112.1	0
24	41	112.2	0
24	41	112.3	0
24	41	112.4	0
24	41	112.5	0
24	41	112.6	0
24	41	112.7	0
24	41	112.8	0
24	41	112.9	0
24	41	113	0
24	41	113.1	0
24	41	113.2	0
24	41	113.3	0
24	41	113.4	0
24	41	113.5	0
24	41	113.6	0
24	41	113.7	0
24	41	113.8	0
24	41	113.9	0
24	41	114	0
24	41	114.1	0
24	41	114.2	0
24	41	114.3	0
24	41	114.4	0
24	41	114.5	0
24	41	114.6	0
24	41	114.7	0
24	41	114.8	0
24	41	114.9	0
24	41	115	0
24	41	115.1	0
24	41	115.2	0
24	41	115.3	0
24	41	115.4	0
24	41	115.5	0
24	41	115.6	0
24	41	115.7	0
24	41	115.8	0
24	41	115.9	0
24	41	116	0
24	41	116.1	0
24	41	116.2	0
24	41	116.3	0
24	41	116.4	0
24	41	116.5	0
24	41	116.6	0
24	41	116.7	0
24	41	116.8	0
24	41	116.9	0
24	41	117	0
24	41	117.1	0
24	41	117.2	0
24	41	117.3	0
24	41	117.4	0
24	41	117.5	0
24	41	117.6	0
24	41	117.7	0
24	41	117.8	0
24	41	117.9	0
24	41	118	0
24	41	118.1	0
24	41	118.2	0
24	41	118.3	0
24	41	118.4	0
24	41	118.5	0
24	41	118.6	0
24	41	118.7	0
24	41	118.8	0
24	41	118.9	0
24	41	119	0
24	41	119.1	0
24	41	119.2	0
24	41	119.3	0
24	41	119.4	0
24	41	119.5	0
24	41	119.6	0
24	41	119.7	0
24	41	119.8	0
24	41	119.9	0
24	41	120	0
24	41	120.1	0
24	41	120.2	0
24	41	120.3	0
24	41	120.4	0
24	41	120.5	0
24	41	120.6	0
24	41	120.7	0
24	41	120.8	0
24	41	120.9	0
24	41	121	0
24	41	121.1	0
24	41	121.2	0
24	41	121.3	0
24	41	121.4	0
24	41	121.5	0
24	41	121.6	0
24	41	121.7	0
24	41	121.8	0
24	41	121.9	0
24	41	122	0
24	41	122.1	0
24	41	122.2	0
24	41	122.3	0
24	41	122.4	0
24	41	122.5	0
24	41	122.6	0
24	41	122.7	0
24	41	122.8	0
24	41	122.9	0
24	41	123	0
24	41	123.1	0
24	41	123.2	0
24	41	123.3	0
24	41	123.4	0
24	41	123.5	0
24	41	123.6	0
24	41	123.7	0
24	41	123.8	0
24	41	123.9	0
24	41	124	0
24	41	124.1	0
24	41	124.2	0
24	41	124.3	0
24	41	124.4	0
24	41	124.5	0
24	41	124.6	0
24	41	124.7	0
24	41	124.8	0
24	41	124.9	0
24	41	125	0
24	41	125.1	0
24	41	125.2	0
24	41	125.3	0
24	41	125.4	0
24	41	125.5	0
24	41	125.6	0
24	41	125.7	0
24	41	125.8	0
24	41	125.9	0
24	41	126	0
24	41	126.1	0
24	41	126.2	0
24	41	126.3	0
24	41	126.4	0
24	41	126.5	0
24	41	126.6	0
24	41	126.7	0
24	41	126.8	0
24	41	126.9	0
24	41	127	0
24	41	127.1	0
24	41	127.2	0
24	41	127.3	0
24	41	127.4	0
24	41	127.5	0
24	41	127.6	0
24	41	127.7	0
24	41	127.8	0
24	41	127.9	0
24	41	128	0
24	41	128.1	0
24	41	128.2	0
24	41	128.3	0
24	41	128.4	0
24	41	128.5	0
24	41	128.6	0
24	41	128.7	0
24	41	128.8	0
24	41	128.9	0
24	41	129	0
24	41	129.1	0
24	41	129.2	0
24	41	129.3	0
24	41	129.4	0
24	41	129.5	0
24	41	129.6	0
24	41	129.7	0
24	41	129.8	0
24	41	129.9	0
24	41	130	0
24	41	130.1	0
24	41	130.2	0
24	41	130.3	0
24	41	130.4	0
24	41	130.5	0
24	41	130.6	0
24	41	130.7	0
24	41	130.8	0
24	41	130.9	0
24	41	131	0
24	41	131.1	0
24	41	131.2	0
24	41	131.3	0
24	41	131.4	0
24	41	131.5	0
24	41	131.6	0
24	41	131.7	0
24	41	131.8	0
24	41	131.9	0
24	41	132	0
24	41	132.1	0
24	41	132.2	0
24	41	132.3	0
24	41	132.4	0
24	41	132.5	0
24	41	132.6	0
24	41	132.7	0
24	41	132.8	0
24	41	132.9	0
24	41	133	0
24	41	133.1	0
24	41	133.2	0
24	41	133.3	0
24	41	133.4	0
24	41	133.5	0
24	41	133.6	0
24	41	133.7	0
24	41	133.8	0
24	41	133.9	0
24	41	134	0
24	41	134.1	0
24	41	134.2	0
24	41	134.3	0
24	41	134.4	0
24	41	134.5	0
24	41	134.6	0
24	41	134.7	0
24	41	134.8	0
24	41	134.9	0
24	41	135	0
24	41	135.1	0
24	41	135.2	0
24	41	135.3	0
24	41	135.4	0
24	41	135.5	0
24	41	135.6	0
24	41	135.7	0
24	41	135.8	0
24	41	135.9	0
24	41	136	0
24	41	136.1	0
24	41	136.2	0
24	41	136.3	0
24	41	136.4	0
24	41	136.5	0
24	41	136.6	0
24	41	136.7	0
24	41	136.8	0
24	41	136.9	0
24	41	137	0
24	41	137.1	0
24	41	137.2	0
24	41	137.3	0
24	41	137.4	0
24	41	137.5	0
24	41	137.6	0
24	41	137.7	0
24	41	137.8	0
24	41	137.9	0
24	41	138	0
24	41	138.1	0
24	41	138.2	0
24	41	138.3	0
24	41	138.4	0
24	41	138.5	0
24	41	138.6	0
24	41	138.7	0
24	41	138.8	0
24	41	138.9	0
24	41	139	0
24	41	139.1	0
24	41	139.2	0
24	41	139.3	0
24	41	139.4	0
24	41	139.5	0
24	41	139.6	0
24	41	139.7	0
24	41	139.8	0
24	41	139.9	0
24	41	140	0
24	41	140.1	0
24	41	140.2	0
24	41	140.3	0
24	41	140.4	0
24	41	140.5	0
24	41	140.6	0
24	41	140.7	0
24	41	140.8	0
24	41	140.9	0
24	41	141	0
24	41	141.1	0
24	41	141.2	0
24	41	141.3	0
24	41	141.4	0
24	41	141.5	0
24	41	141.6	0
24	41	141.7	0
24	41	141.8	0
24	41	141.9	0
24	41	142	0
24	41	142.1	0
24	41	142.2	0
24	41	142.3	0
24	41	142.4	0
24	41	142.5	0
24	41	142.6	0
24	41	142.7	0
24	41	142.8	0
24	41	142.9	0
24	41	143	0
24	41	143.1	0
24	41	143.2	0
24	41	143.3	0
24	41	143.4	0
24	41	143.5	0
24	41	143.6	0
24	41	143.7	0
24	41	143.8	0
24	41	143.9	0
24	41	144	0
24	41	144.1	0
24	41	144.2	0
24	41	144.3	0
24	41	144.4	0
24	41	144.5	0
24	41	144.6	0
24	41	144.7	0
24	41	144.8	0
24	41	144.9	0
24	41	145	0
24	41	145.1	0
24	41	145.2	0
24	41	145.3	0
24	41	145.4	0
24	41	145.5	0
24	41	145.6	0
24	41	145.7	0
24	41	145.8	0
24	41	145.9	0
24	41	146	0
24	41	146.1	0
24	41	146.2	0
24	41	146.3	0
24	41	146.4	0
24	41	146.5	0
24	41	146.6	0
24	41	146.7	0
24	41	146.8	0
24	41	146.9	0
24	41	147	0
24	41	147.1	0
24	41	147.2	0
24	41	147.3	0
24	41	147.4	0
24	41	147.5	0
24	41	147.6	0
24	41	147.7	0
24	41	147.8	0
24	41	147.9	0
24	41	148	0
24	41	148.1	0
24	41	148.2	0
24	41	148.3	0
24	41	148.4	0
24	41	148.5	0
24	41	148.6	0
24	41	148.7	0
24	41	148.8	0
24	41	148.9	0
24	41	149	0
24	41	149.1	0
24	41	149.2	0
24	41	149.3	0
24	41	149.4	0
24	41	149.5	0
24	41	149.6	0
24	41	149.7	0
24	41	149.8	0
24	41	149.9	0
24	41	150	0
24	41	150.1	0
24	41	150.2	0
24	41	150.3	0
24	41	150.4	0
24	41	150.5	0
24	41	150.6	0
24	41	150.7	0
24	41	150.8	0
24	41	150.9	0
24	41	151	0
24	41	151.1	0
24	41	151.2	0
24	41	151.3	0
24	41	151.4	0
24	41	151.5	0
24	41	151.6	0
24	41	151.7	0
24	41	151.8	0
24	41	151.9	0
24	41	152	0
24	41	152.1	0
24	41	152.2	0
24	41	152.3	0
24	41	152.4	0
24	41	152.5	0
24	41	152.6	0
24	41	152.7	0
24	41	152.8	0
24	41	152.9	0
24	41	153	0
24	41	153.1	0
24	41	153.2	0
24	41	153.3	0
24	41	153.4	0
24	41	153.5	0
24	41	153.6	0
24	41	153.7	0
24	41	153.8	0
24	41	153.9	0
24	41	154	0
24	41	154.1	0
24	41	154.2	0
24	41	154.3	0
24	41	154.4	0
24	41	154.5	0
24	41	154.6	0
24	41	154.7	0
24	41	154.8	0
24	41	154.9	0
24	41	155	0
24	41	155.1	0
24	41	155.2	0
24	41	155.3	0
24	41	155.4	0
24	41	155.5	0
24	41	155.6	0
24	41	155.7	0
24	41	155.8	0
24	41	155.9	0
24	41	156	0
24	41	156.1	0
24	41	156.2	0
24	41	156.3	0
24	41	156.4	0
24	41	156.5	0
24	41	156.6	0
24	41	156.7	0
24	41	156.8	0
24	41	156.9	0
24	41	157	0
24	41	157.1	0
24	41	157.2	0
24	41	157.3	0
24	41	157.4	0
24	41	157.5	0
24	41	157.6	0
24	41	157.7	0
24	41	157.8	0
24	41	157.9	0
24	41	158	0
24	41	158.1	0
24	41	158.2	0
24	41	158.3	0
24	41	158.4	0
24	41	158.5	0
24	41	158.6	0
24	41	158.7	0
24	41	158.8	0
24	41	158.9	0
24	41	159	0
24	41	159.1	0
24	41	159.2	0
24	41	159.3	0
24	41	159.4	0
24	41	159.5	0
24	41	159.6	0
24	41	159.7	0
24	41	159.8	0
24	41	159.9	0
24	41	160	0
24	41	160.1	0
24	41	160.2	0
24	41	160.3	0
24	41	160.4	0
24	41	160.5	0
24	41	160.6	0
24	41	160.7	0
24	41	160.8	0
24	41	160.9	0
24	41	161	0
24	41	161.1	0
24	41	161.2	0
24	41	161.3	0
24	41	161.4	0
24	41	161.5	0
24	41	161.6	0
24	41	161.7	0
24	41	161.8	0
24	41	161.9	0
24	41	162	0
24	41	162.1	0
24	41	162.2	0
24	41	162.3	0
24	41	162.4	0
24	41	162.5	0
24	41	162.6	0
24	41	162.7	0
24	41	162.8	0
24	41	162.9	0
24	41	163	0
24	41	163.1	0
24	41	163.2	0
24	41	163.3	0
24	41	163.4	0
24	41	163.5	0
24	41	163.6	0
24	41	163.7	0
24	41	163.8	0
24	41	163.9	0
24	41	164	0
24	41	164.1	0
24	41	164.2	0
24	41	164.3	0
24	41	164.4	0
24	41	164.5	0
24	41	164.6	0
24	41	164.7	0
24	41	164.8	0
24	41	164.9	0
24	41	165	0
24	41	165.1	0
24	41	165.2	0
24	41	165.3	0
24	41	165.4	0
24	41	165.5	0
24	41	165.6	0
24	41	165.7	0
24	41	165.8	0
24	41	165.9	0
24	41	166	0
24	41	166.1	0
24	41	166.2	0
24	41	166.3	0
24	41	166.4	0
24	41	166.5	0
24	41	166.6	0
24	41	166.7	0
24	41	166.8	0
24	41	166.9	0
24	41	167	0
24	41	167.1	0
24	41	167.2	0
24	41	167.3	0
24	41	167.4	0
24	41	167.5	0
24	41	167.6	0
24	41	167.7	0
24	41	167.8	0
24	41	167.9	0
24	41	168	0
24	41	168.1	0
24	41	168.2	0
24	41	168.3	0
24	41	168.4	0
24	41	168.5	0
24	41	168.6	0
24	41	168.7	0
24	41	168.8	0
24	41	168.9	0
24	41	169	0
24	41	169.1	0
24	41	169.2	0
24	41	169.3	0
24	41	169.4	0
24	41	169.5	0
24	41	169.6	0
24	41	169.7	0
24	41	169.8	0
24	41	169.9	0
24	41	170	0
24	41	170.1	0
24	41	170.2	0
24	41	170.3	0
24	41	170.4	0
24	41	170.5	0
24	41	170.6	0
24	41	170.7	0
24	41	170.8	0
24	41	170.9	0
24	41	171	0
24	41	171.1	0
24	41	171.2	0
24	41	171.3	0
24	41	171.4	0
24	41	171.5	0
24	41	171.6	0
24	41	171.7	0
24	41	171.8	0
24	41	171.9	0
24	41	172	0
24	41	172.1	0
24	41	172.2	0
24	41	172.3	0
24	41	172.4	0
24	41	172.5	0
24	41	172.6	0
24	41	172.7	0
24	41	172.8	0
24	41	172.9	0
24	41	173	0
24	41	173.1	0
24	41	173.2	0
24	41	173.3	0
24	41	173.4	0
24	41	173.5	0
24	41	173.6	0
24	41	173.7	0
24	41	173.8	0
24	41	173.9	0
24	41	174	0
24	41	174.1	0
24	41	174.2	0
24	41	174.3	0
24	41	174.4	0
24	41	174.5	0
24	41	174.6	0
24	41	174.7	0
24	41	174.8	0
24	41	174.9	0
24	41	175	0
24	41	175.1	0
24	41	175.2	0
24	41	175.3	0
24	41	175.4	0
24	41	175.5	0
24	41	175.6	0
24	41	175.7	0
24	41	175.8	0
24	41	175.9	0
24	41	176	0
24	41	176.1	0
24	41	176.2	0
24	41	176.3	0
24	41	176.4	0
24	41	176.5	0
24	41	176.6	0
24	41	176.7	0
24	41	176.8	0
24	41	176.9	0
24	41	177	0
24	41	177.1	0
24	41	177.2	0
24	41	177.3	0
24	41	177.4	0
24	41	177.5	0
24	41	177.6	0
24	41	177.7	0
24	41	177.8	0
24	41	177.9	0
24	41	178	0
24	41	178.1	0
24	41	178.2	0
24	41	178.3	0
24	41	178.4	0
24	41	178.5	0
24	41	178.6	0
24	41	178.7	0
24	41	178.8	0
24	41	178.9	0
24	41	179	0
24	41	179.1	0
24	41	179.2	0
24	41	179.3	0
24	41	179.4	0
24	41	179.5	0
24	41	179.6	0
24	41	179.7	0
24	41	179.8	0
24	41	179.9	0
24	41	180	0
24	41	180.1	0
24	41	180.2	0
24	41	180.3	0
24	41	180.4	0
24	41	180.5	0
24	41	180.6	0
24	41	180.7	0
24	41	180.8	0
24	41	180.9	0
24	41	181	0
24	41	181.1	0
24	41	181.2	0
24	41	181.3	0
24	41	181.4	0
24	41	181.5	0
24	41	181.6	0
24	41	181.7	0
24	41	181.8	0
24	41	181.9	0
24	41	182	0
24	41	182.1	0
24	41	182.2	0
24	41	182.3	0
24	41	182.4	0
24	41	182.5	0
24	41	182.6	0
24	41	182.7	0
24	41	182.8	0
24	41	182.9	0
24	41	183	0
24	41	183.1	0
24	41	183.2	0
24	41	183.3	0
24	41	183.4	0
24	41	183.5	0
24	41	183.6	0
24	41	183.7	0
24	41	183.8	0
24	41	183.9	0
24	41	184	0
24	41	184.1	0
24	41	184.2	0
24	41	184.3	0
24	41	184.4	0
24	41	184.5	0
24	41	184.6	0
24	41	184.7	0
24	41	184.8	0
24	41	184.9	0
24	41	185	0
24	41	185.1	0
24	41	185.2	0
24	41	185.3	0
24	41	185.4	0
24	41	185.5	0
24	41	185.6	0
24	41	185.7	0
24	41	185.8	0
24	41	185.9	0
24	41	186	0
24	41	186.1	0
24	41	186.2	0
24	41	186.3	0
24	41	186.4	0
24	41	186.5	0
24	41	186.6	0
24	41	186.7	0
24	41	186.8	0
24	41	186.9	0
24	41	187	0
24	41	187.1	0
24	41	187.2	0
24	41	187.3	0
24	41	187.4	0
24	41	187.5	0
24	41	187.6	0
24	41	187.7	0
24	41	187.8	0
24	41	187.9	0
24	41	188	0
24	41	188.1	0
24	41	188.2	0
24	41	188.3	0
24	41	188.4	0
24	41	188.5	0
24	41	188.6	0
24	41	188.7	0
24	41	188.8	0
24	41	188.9	0
24	41	189	0
24	41	189.1	0
24	41	189.2	0
24	41	189.3	0
24	41	189.4	0
24	41	189.5	0
24	41	189.6	0
24	41	189.7	0
24	41	189.8	0
24	41	189.9	0
24	41	190	0
24	41	190.1	0
24	41	190.2	0
24	41	190.3	0
24	41	190.4	0
24	41	190.5	0
24	41	190.6	0
24	41	190.7	0
24	41	190.8	0
24	41	190.9	0
24	41	191	0
24	41	191.1	0
24	41	191.2	0
24	41	191.3	0
24	41	191.4	0
24	41	191.5	0
24	41	191.6	0
24	41	191.7	0
24	41	191.8	0
24	41	191.9	0
24	41	192	0
24	41	192.1	0
24	41	192.2	0
24	41	192.3	0
24	41	192.4	0
24	41	192.5	0
24	41	192.6	0
24	41	192.7	0
24	41	192.8	0
24	41	192.9	0
24	41	193	0
24	41	193.1	0
24	41	193.2	0
24	41	193.3	0
24	41	193.4	0
24	41	193.5	0
24	41	193.6	0
24	41	193.7	0
24	41	193.8	0
24	41	193.9	0
24	41	194	0
24	41	194.1	0
24	41	194.2	0
24	41	194.3	0
24	41	194.4	0
24	41	194.5	0
24	41	194.6	0
24	41	194.7	0
24	41	194.8	0
24	41	194.9	0
24	41	195	0
24	41	195.1	0
24	41	195.2	0
24	41	195.3	0
24	41	195.4	0
24	41	195.5	0
24	41	195.6	0
24	41	195.7	0
24	41	195.8	0
24	41	195.9	0
24	41	196	0
24	41	196.1	0
24	41	196.2	0
24	41	196.3	0
24	41	196.4	0
24	41	196.5	0
24	41	196.6	0
24	41	196.7	0
24	41	196.8	0
24	41	196.9	0
24	41	197	0
24	41	197.1	0
24	41	197.2	0
24	41	197.3	0
24	41	197.4	0
24	41	197.5	0
24	41	197.6	0
24	41	197.7	0
24	41	197.8	0
24	41	197.9	0
24	41	198	0
24	41	198.1	0
24	41	198.2	0
24	41	198.3	0
24	41	198.4	0
24	41	198.5	0
24	41	198.6	0
24	41	198.7	0
24	41	198.8	0
24	41	198.9	0
24	41	199	0
24	41	199.1	0
24	41	199.2	0
24	41	199.3	0
24	41	199.4	0
24	41	199.5	0
24	41	199.6	0
24	41	199.7	0
24	41	199.8	0
24	41	199.9	0
24	41	200	0
24	41	200.1	0
24	41	200.2	0
24	41	200.3	0
24	41	200.4	0
24	41	200.5	0
24	41	200.6	0
24	41	200.7	0
24	41	200.8	0
24	41	200.9	0
24	41	201	0
24	41	201.1	0
24	41	201.2	0
24	41	201.3	0
24	41	201.4	0
24	41	201.5	0
24	41	201.6	0
24	41	201.7	0
24	41	201.8	0
24	41	201.9	0
24	41	202	0
24	41	202.1	0
24	41	202.2	0
24	41	202.3	0
24	41	202.4	0
24	41	202.5	0
24	41	202.6	0
24	41	202.7	0
24	41	202.8	0
24	41	202.9	0
24	41	203	0
24	41	203.1	0
24	41	203.2	0
24	41	203.3	0
24	41	203.4	0
24	41	203.5	0
24	41	203.6	0
24	41	203.7	0
24	41	203.8	0
24	41	203.9	0
24	41	204	0
24	41	204.1	0
24	41	204.2	0
24	41	204.3	0
24	41	204.4	0
24	41	204.5	0
24	41	204.6	0
24	41	204.7	0
24	41	204.8	0
24	41	204.9	0
24	41	205	0
24	41	205.1	0
24	41	205.2	0
24	41	205.3	0
24	41	205.4	0
24	41	205.5	0
24	41	205.6	0
24	41	205.7	0
24	41	205.8	0
24	41	205.9	0
24	41	206	0
24	41	206.1	0
24	41	206.2	0
24	41	206.3	0
24	41	206.4	0
24	41	206.5	0
24	41	206.6	0
24	41	206.7	0
24	41	206.8	0
24	41	206.9	0
24	41	207	0
24	41	207.1	0
24	41	207.2	0
24	41	207.3	0
24	41	207.4	0
24	41	207.5	0
24	41	207.6	0
24	41	207.7	0
24	41	207.8	0
24	41	207.9	0
24	41	208	0
24	41	208.1	0
24	41	208.2	0
24	41	208.3	0
24	41	208.4	0
24	41	208.5	0
24	41	208.6	0
24	41	208.7	0
24	41	208.8	0
24	41	208.9	0
24	41	209	0
24	41	209.1	0
24	41	209.2	0
24	41	209.3	0
24	41	209.4	0
24	41	209.5	0
24	41	209.6	0
24	41	209.7	0
24	41	209.8	0
24	41	209.9	0
24	41	210	0
24	41	210.1	0
24	41	210.2	0
24	41	210.3	0
24	41	210.4	0
24	41	210.5	0
24	41	210.6	0
24	41	210.7	0
24	41	210.8	0
24	41	210.9	0
24	41	211	0
24	41	211.1	0
24	41	211.2	0
24	41	211.3	0
24	41	211.4	0
24	41	211.5	0
24	41	211.6	0
24	41	211.7	0
24	41	211.8	0
24	41	211.9	0
24	41	212	0
24	41	212.1	0
24	41	212.2	0
24	41	212.3	0
24	41	212.4	0
24	41	212.5	0
24	41	212.6	0
24	41	212.7	0
24	41	212.8	0
24	41	212.9	0
24	41	213	0
24	41	213.1	0
24	41	213.2	0
24	41	213.3	0
24	41	213.4	0
24	41	213.5	0
24	41	213.6	0
24	41	213.7	0
24	41	213.8	0
24	41	213.9	0
24	41	214	0
24	41	214.1	0
24	41	214.2	0
24	41	214.3	0
24	41	214.4	0
24	41	214.5	0
24	41	214.6	0
24	41	214.7	0
24	41	214.8	0
24	41	214.9	0
24	41	215	0
24	41	215.1	0
24	41	215.2	0
24	41	215.3	0
24	41	215.4	0
24	41	215.5	0
24	41	215.6	0
24	41	215.7	0
24	41	215.8	0
24	41	215.9	0
24	41	216	0
24	41	216.1	0
24	41	216.2	0
24	41	216.3	0
24	41	216.4	0
24	41	216.5	0
24	41	216.6	0
24	41	216.7	0
24	41	216.8	0
24	41	216.9	0
24	41	217	0
24	41	217.1	0
24	41	217.2	0
24	41	217.3	0
24	41	217.4	0
24	41	217.5	0
24	41	217.6	0
24	41	217.7	0
24	41	217.8	0
24	41	217.9	0
24	41	218	0
24	41	218.1	0
24	41	218.2	0
24	41	218.3	0
24	41	218.4	0
24	41	218.5	0
24	41	218.6	0
24	41	218.7	0
24	41	218.8	0
24	41	218.9	0
24	41	219	0
24	41	219.1	0
24	41	219.2	0
24	41	219.3	0
24	41	219.4	0
24	41	219.5	0
24	41	219.6	0
24	41	219.7	0
24	41	219.8	0
24	41	219.9	0
24	41	220	0
24	41	220.1	0
24	41	220.2	0
24	41	220.3	0
24	41	220.4	0
24	41	220.5	0
24	41	220.6	0
24	41	220.7	0
24	41	220.8	0
24	41	220.9	0
24	41	221	0
24	41	221.1	0
24	41	221.2	0
24	41	221.3	0
24	41	221.4	0
24	41	221.5	0
24	41	221.6	0
24	41	221.7	0
24	41	221.8	0
24	41	221.9	0
24	41	222	0
24	41	222.1	0
24	41	222.2	0
24	41	222.3	0
24	41	222.4	0
24	41	222.5	0
24	41	222.6	0
24	41	222.7	0
24	41	222.8	0
24	41	222.9	0
24	41	223	0
24	41	223.1	0
24	41	223.2	0
24	41	223.3	0
24	41	223.4	0
24	41	223.5	0
24	41	223.6	0
24	41	223.7	0
24	41	223.8	0
24	41	223.9	0
24	41	224	0
24	41	224.1	0
24	41	224.2	0
24	41	224.3	0
24	41	224.4	0
24	41	224.5	0
24	41	224.6	0
24	41	224.7	0
24	41	224.8	0
24	41	224.9	0
24	41	225	0
24	41	225.1	0
24	41	225.2	0
24	41	225.3	0
24	41	225.4	0
24	41	225.5	0
24	41	225.6	0
24	41	225.7	0
24	41	225.8	0
24	41	225.9	0
24	41	226	0
24	41	226.1	0
24	41	226.2	0
24	41	226.3	0
24	41	226.4	0
24	41	226.5	0
24	41	226.6	0
24	41	226.7	0
24	41	226.8	0
24	41	226.9	0
24	41	227	0
24	41	227.1	0
24	41	227.2	0
24	41	227.3	0
24	41	227.4	0
24	41	227.5	0
24	41	227.6	0
24	41	227.7	0
24	41	227.8	0
24	41	227.9	0
24	41	228	0
24	41	228.1	0
24	41	228.2	0
24	41	228.3	0
24	41	228.4	0
24	41	228.5	0
24	41	228.6	0
24	41	228.7	0
24	41	228.8	0
24	41	228.9	0
24	41	229	0
24	41	229.1	0
24	41	229.2	0
24	41	229.3	0
24	41	229.4	0
24	41	229.5	0
24	41	229.6	0
24	41	229.7	0
24	41	229.8	0
24	41	229.9	0
24	41	230	0
24	41	230.1	0
24	41	230.2	0
24	41	230.3	0
24	41	230.4	0
24	41	230.5	0
24	41	230.6	0
24	41	230.7	0
24	41	230.8	0
24	41	230.9	0
24	41	231	0
24	41	231.1	0
24	41	231.2	0
24	41	231.3	0
24	41	231.4	0
24	41	231.5	0
24	41	231.6	0
24	41	231.7	0
24	41	231.8	0
24	41	231.9	0
24	41	232	0
24	41	232.1	0
24	41	232.2	0
24	41	232.3	0
24	41	232.4	0
24	41	232.5	0
24	41	232.6	0
24	41	232.7	0
24	41	232.8	0
24	41	232.9	0
24	41	233	0
24	41	233.1	0
24	41	233.2	0
24	41	233.3	0
24	41	233.4	0
24	41	233.5	0
24	41	233.6	0
24	41	233.7	0
24	41	233.8	0
24	41	233.9	0
24	41	234	0
24	41	234.1	0
24	41	234.2	0
24	41	234.3	0
24	41	234.4	0
24	41	234.5	0
24	41	234.6	0
24	41	234.7	0
24	41	234.8	0
24	41	234.9	0
24	41	235	0
24	41	235.1	0
24	41	235.2	0
24	41	235.3	0
24	41	235.4	0
24	41	235.5	0
24	41	235.6	0
24	41	235.7	0
24	41	235.8	0
24	41	235.9	0
24	41	236	0
24	41	236.1	0
24	41	236.2	0
24	41	236.3	0
24	41	236.4	0
24	41	236.5	0
24	41	236.6	0
24	41	236.7	0
24	41	236.8	0
24	41	236.9	0
24	41	237	0
24	41	237.1	0
24	41	237.2	0
24	41	237.3	0
24	41	237.4	0
24	41	237.5	0
24	41	237.6	0
24	41	237.7	0
24	41	237.8	0
24	41	237.9	0
24	41	238	0
24	41	238.1	0
24	41	238.2	0
24	41	238.3	0
24	41	238.4	0
24	41	238.5	0
24	41	238.6	0
24	41	238.7	0
24	41	238.8	0
24	41	238.9	0
24	41	239	0
24	41	239.1	0
24	41	239.2	0
24	41	239.3	0
24	41	239.4	0
24	41	239.5	0
24	41	239.6	0
24	41	239.7	0
24	41	239.8	0
24	41	239.9	0
24	41	240	0
24	41	240.1	0
24	41	240.2	0
24	41	240.3	0
24	41	240.4	0
24	41	240.5	0
24	41	240.6	0
24	41	240.7	0
24	41	240.8	0
24	41	240.9	0
24	41	241	0
24	41	241.1	0
24	41	241.2	0
24	41	241.3	0
24	41	241.4	0
24	41	241.5	0
24	41	241.6	0
24	41	241.7	0
24	41	241.8	0
24	41	241.9	0
24	41	242	0
24	41	242.1	0
24	41	242.2	0
24	41	242.3	0
24	41	242.4	0
24	41	242.5	0
24	41	242.6	0
24	41	242.7	0
24	41	242.8	0
24	41	242.9	0
24	41	243	0
24	41	243.1	0
24	41	243.2	0
24	41	243.3	0
24	41	243.4	0
24	41	243.5	0
24	41	243.6	0
24	41	243.7	0
24	41	243.8	0
24	41	243.9	0
24	41	244	0
24	41	244.1	0
24	41	244.2	0
24	41	244.3	0
24	41	244.4	0
24	41	244.5	0
24	41	244.6	0
24	41	244.7	0
24	41	244.8	0
24	41	244.9	0
24	41	245	0
24	41	245.1	0
24	41	245.2	0
24	41	245.3	0
24	41	245.4	0
24	41	245.5	0
24	41	245.6	0
24	41	245.7	0
24	41	245.8	0
24	41	245.9	0
24	41	246	0
24	41	246.1	0
24	41	246.2	0
24	41	246.3	0
24	41	246.4	0
24	41	246.5	0
24	41	246.6	0
24	41	246.7	0
24	41	246.8	0
24	41	246.9	0
24	41	247	0
24	41	247.1	0
24	41	247.2	0
24	41	247.3	0
24	41	247.4	0
24	41	247.5	0
24	41	247.6	0
24	41	247.7	0
24	41	247.8	0
24	41	247.9	0
24	41	248	0
24	41	248.1	0
24	41	248.2	0
24	41	248.3	0
24	41	248.4	0
24	41	248.5	0
24	41	248.6	0
24	41	248.7	0
24	41	248.8	0
24	41	248.9	0
24	41	249	0
24	41	249.1	0
24	41	249.2	0
24	41	249.3	0
24	41	249.4	0
24	41	249.5	0
24	41	249.6	0
24	41	249.7	0
24	41	249.8	0
24	41	249.9	0
24	41	250	0
24	41	250.1	0
24	41	250.2	0
24	41	250.3	0
24	41	250.4	0
24	41	250.5	0
24	41	250.6	0
24	41	250.7	0
24	41	250.8	0
24	41	250.9	0
24	41	251	0
24	41	251.1	0
24	41	251.2	0
24	41	251.3	0
24	41	251.4	0
24	41	251.5	0
24	41	251.6	0
24	41	251.7	0
24	41	251.8	0
24	41	251.9	0
24	41	252	0
24	41	252.1	0
24	41	252.2	0
24	41	252.3	0
24	41	252.4	0
24	41	252.5	0
24	41	252.6	0
24	41	252.7	0
24	41	252.8	0
24	41	252.9	0
24	41	253	0
24	41	253.1	0
24	41	253.2	0
24	41	253.3	0
24	41	253.4	0
24	41	253.5	0
24	41	253.6	0
24	41	253.7	0
24	41	253.8	0
24	41	253.9	0
24	41	254	0
24	41	254.1	0
24	41	254.2	0
24	41	254.3	0
24	41	254.4	0
24	41	254.5	0
24	41	254.6	0
24	41	254.7	0
24	41	254.8	0
24	41	254.9	0
24	41	255	0
24	41	255.1	0
24	41	255.2	0
24	41	255.3	0
24	41	255.4	0
24	41	255.5	0
24	41	255.6	0
24	41	255.7	0
24	41	255.8	0
24	41	255.9	0
24	41	256	0
24	41	256.1	0
24	41	256.2	0
24	41	256.3	0
24	41	256.4	0
24	41	256.5	0
24	41	256.6	0
24	41	256.7	0
24	41	256.8	0
24	41	256.9	0
24	41	257	0
24	41	257.1	0
24	41	257.2	0
24	41	257.3	0
24	41	257.4	0
24	41	257.5	0
24	41	257.6	0
24	41	257.7	0
24	41	257.8	0
24	41	257.9	0
24	41	258	0
24	41	258.1	0
24	41	258.2	0
24	41	258.3	0
24	41	258.4	0
24	41	258.5	0
24	41	258.6	0
24	41	258.7	0
24	41	258.8	0
24	41	258.9	0
24	41	259	0
24	41	259.1	0
24	41	259.2	0
24	41	259.3	0
24	41	259.4	0
24	41	259.5	0
24	41	259.6	0
24	41	259.7	0
24	41	259.8	0
24	41	259.9	0
24	41	260	0
24	41	260.1	0
24	41	260.2	0
24	41	260.3	0
24	41	260.4	0
24	41	260.5	0
24	41	260.6	0
24	41	260.7	0
24	41	260.8	0
24	41	260.9	0
24	41	261	0
24	41	261.1	0
24	41	261.2	0
24	41	261.3	0
24	41	261.4	0
24	41	261.5	0
24	41	261.6	0
24	41	261.7	0
24	41	261.8	0
24	41	261.9	0
24	41	262	0
24	41	262.1	0
24	41	262.2	0
24	41	262.3	0
24	41	262.4	0
24	41	262.5	0
24	41	262.6	0
24	41	262.7	0
24	41	262.8	0
24	41	262.9	0
24	41	263	0
24	41	263.1	0
24	41	263.2	0
24	41	263.3	0
24	41	263.4	0
24	41	263.5	0
24	41	263.6	0
24	41	263.7	0
24	41	263.8	0
24	41	263.9	0
24	41	264	0
24	41	264.1	0
24	41	264.2	0
24	41	264.3	0
24	41	264.4	0
24	41	264.5	0
24	41	264.6	0
24	41	264.7	0
24	41	264.8	0
24	41	264.9	0
24	41	265	0
24	41	265.1	0
24	41	265.2	0
24	41	265.3	0
24	41	265.4	0
24	41	265.5	0
24	41	265.6	0
24	41	265.7	0
24	41	265.8	0
24	41	265.9	0
24	41	266	0
24	41	266.1	0
24	41	266.2	0
24	41	266.3	0
24	41	266.4	0
24	41	266.5	0
24	41	266.6	0
24	41	266.7	0
24	41	266.8	0
24	41	266.9	0
24	41	267	0
24	41	267.1	0
24	41	267.2	0
24	41	267.3	0
24	41	267.4	0
24	41	267.5	0
24	41	267.6	0
24	41	267.7	0
24	41	267.8	0
24	41	267.9	0
24	41	268	0
24	41	268.1	0
24	41	268.2	0
24	41	268.3	0
24	41	268.4	0
24	41	268.5	0
24	41	268.6	0
24	41	268.7	0
24	41	268.8	0
24	41	268.9	0
24	41	269	0
24	41	269.1	0
24	41	269.2	0
24	41	269.3	0
24	41	269.4	0
24	41	269.5	0
24	41	269.6	0
24	41	269.7	0
24	41	269.8	0
24	41	269.9	0
24	41	270	0
24	41	270.1	0
24	41	270.2	0
24	41	270.3	0
24	41	270.4	0
24	41	270.5	0
24	41	270.6	0
24	41	270.7	0
24	41	270.8	0
24	41	270.9	0
24	41	271	0
24	41	271.1	0
24	41	271.2	0
24	41	271.3	0
24	41	271.4	0
24	41	271.5	0
24	41	271.6	0
24	41	271.7	0
24	41	271.8	0
24	41	271.9	0
24	41	272	0
24	41	272.1	0
24	41	272.2	0
24	41	272.3	0
24	41	272.4	0
24	41	272.5	0
24	41	272.6	0
24	41	272.7	0
24	41	272.8	0
24	41	272.9	0
24	41	273	0
24	41	273.1	0
24	41	273.2	0
24	41	273.3	0
24	41	273.4	0
24	41	273.5	0
24	41	273.6	0
24	41	273.7	0
24	41	273.8	0
24	41	273.9	0
24	41	274	0
24	41	274.1	0
24	41	274.2	0
24	41	274.3	0
24	41	274.4	0
24	41	274.5	0
24	41	274.6	0
24	41	274.7	0
24	41	274.8	0
24	41	274.9	0
24	41	275	0
24	41	275.1	0
24	41	275.2	0
24	41	275.3	0
24	41	275.4	0
24	41	275.5	0
24	41	275.6	0
24	41	275.7	0
24	41	275.8	0
24	41	275.9	0
24	41	276	0
24	41	276.1	0
24	41	276.2	0
24	41	276.3	0
24	41	276.4	0
24	41	276.5	0
24	41	276.6	0
24	41	276.7	0
24	41	276.8	0
24	41	276.9	0
24	41	277	0
24	41	277.1	0
24	41	277.2	0
24	41	277.3	0
24	41	277.4	0
24	41	277.5	0
24	41	277.6	0
24	41	277.7	0
24	41	277.8	0
24	41	277.9	0
24	41	278	0
24	41	278.1	0
24	41	278.2	0
24	41	278.3	0
24	41	278.4	0
24	41	278.5	0
24	41	278.6	0
24	41	278.7	0
24	41	278.8	0
24	41	278.9	0
24	41	279	0
24	41	279.1	0
24	41	279.2	0
24	41	279.3	0
24	41	279.4	0
24	41	279.5	0
24	41	279.6	0
24	41	279.7	0
24	41	279.8	0
24	41	279.9	0
24	41	280	0
24	41	280.1	0
24	41	280.2	0
24	41	280.3	0
24	41	280.4	0
24	41	280.5	0
24	41	280.6	0
24	41	280.7	0
24	41	280.8	0
24	41	280.9	0
24	41	281	0
24	41	281.1	0
24	41	281.2	0
24	41	281.3	0
24	41	281.4	0
24	41	281.5	0
24	41	281.6	0
24	41	281.7	0
24	41	281.8	0
24	41	281.9	0
24	41	282	0
24	41	282.1	0
24	41	282.2	0
24	41	282.3	0
24	41	282.4	0
24	41	282.5	0
24	41	282.6	0
24	41	282.7	0
24	41	282.8	0
24	41	282.9	0
24	41	283	0
24	41	283.1	0
24	41	283.2	0
24	41	283.3	0
24	41	283.4	0
24	41	283.5	0
24	41	283.6	0
24	41	283.7	0
24	41	283.8	0
24	41	283.9	0
24	41	284	0
24	41	284.1	0
24	41	284.2	0
24	41	284.3	0
24	41	284.4	0
24	41	284.5	0
24	41	284.6	0
24	41	284.7	0
24	41	284.8	0
24	41	284.9	0
24	41	285	0
24	41	285.1	0
24	41	285.2	0
24	41	285.3	0
24	41	285.4	0
24	41	285.5	0
24	41	285.6	0
24	41	285.7	0
24	41	285.8	0
24	41	285.9	0
24	41	286	0
24	41	286.1	0
24	41	286.2	0
24	41	286.3	0
24	41	286.4	0
24	41	286.5	0
24	41	286.6	0
24	41	286.7	0
24	41	286.8	0
24	41	286.9	0
24	41	287	0
24	41	287.1	0
24	41	287.2	0
24	41	287.3	0
24	41	287.4	0
24	41	287.5	0
24	41	287.6	0
24	41	287.7	0
24	41	287.8	0
24	41	287.9	0
24	41	288	0
24	41	288.1	0
24	41	288.2	0
24	41	288.3	0
24	41	288.4	0
24	41	288.5	0
24	41	288.6	0
24	41	288.7	0
24	41	288.8	0
24	41	288.9	0
24	41	289	0
24	41	289.1	0
24	41	289.2	0
24	41	289.3	0
24	41	289.4	0
24	41	289.5	0
24	41	289.6	0
24	41	289.7	0
24	41	289.8	0
24	41	289.9	0
24	41	290	0
24	41	290.1	0
24	41	290.2	0
24	41	290.3	0
24	41	290.4	0
24	41	290.5	0
24	41	290.6	0
24	41	290.7	0
24	41	290.8	0
24	41	290.9	0
24	41	291	0
24	41	291.1	0
24	41	291.2	0
24	41	291.3	0
24	41	291.4	0
24	41	291.5	0
24	41	291.6	0
24	41	291.7	0
24	41	291.8	0
24	41	291.9	0
24	41	292	0
24	41	292.1	0
24	41	292.2	0
24	41	292.3	0
24	41	292.4	0
24	41	292.5	0
24	41	292.6	0
24	41	292.7	0
24	41	292.8	0
24	41	292.9	0
24	41	293	0
24	41	293.1	0
24	41	293.2	0
24	41	293.3	0
24	41	293.4	0
24	41	293.5	0
24	41	293.6	0
24	41	293.7	0
24	41	293.8	0
24	41	293.9	0
24	41	294	0
24	41	294.1	0
24	41	294.2	0
24	41	294.3	0
24	41	294.4	0
24	41	294.5	0
24	41	294.6	0
24	41	294.7	0
24	41	294.8	0
24	41	294.9	0
24	41	295	0
24	41	295.1	0
24	41	295.2	0
24	41	295.3	0
24	41	295.4	0
24	41	295.5	0
24	41	295.6	0
24	41	295.7	0
24	41	295.8	0
24	41	295.9	0
24	41	296	0
24	41	296.1	0
24	41	296.2	0
24	41	296.3	0
24	41	296.4	0
24	41	296.5	0
24	41	296.6	0
24	41	296.7	0
24	41	296.8	0
24	41	296.9	0
24	41	297	0
24	41	297.1	0
24	41	297.2	0
24	41	297.3	0
24	41	297.4	0
24	41	297.5	0
24	41	297.6	0
24	41	297.7	0
24	41	297.8	0
24	41	297.9	0
24	41	298	0
24	41	298.1	0
24	41	298.2	0
24	41	298.3	0
24	41	298.4	0
24	41	298.5	0
24	41	298.6	0
24	41	298.7	0
24	41	298.8	0
24	41	298.9	0
24	41	299	0
24	41	299.1	0
24	41	299.2	0
24	41	299.3	0
24	41	299.4	0
24	41	299.5	0
24	41	299.6	0
24	41	299.7	0
24	41	299.8	0
24	41	299.9	0
24	41	300	0
24	41	300.1	0
24	41	300.2	0
24	41	300.3	0
24	41	300.4	0
24	41	300.5	0
24	41	300.6	0
24	41	300.7	0
24	41	300.8	0
24	41	300.9	0
24	41	301	0
24	41	301.1	0
24	41	301.2	0
24	41	301.3	0
24	41	301.4	0
24	41	301.5	0
24	41	301.6	0
24	41	301.7	0
24	41	301.8	0
24	41	301.9	0
24	41	302	0
24	41	302.1	0
24	41	302.2	0
24	41	302.3	0
24	41	302.4	0
24	41	302.5	0
24	41	302.6	0
24	41	302.7	0
24	41	302.8	0
24	41	302.9	0
24	41	303	0
24	41	303.1	0
24	41	303.2	0
24	41	303.3	0
24	41	303.4	0
24	41	303.5	0
24	41	303.6	0
24	41	303.7	0
24	41	303.8	0
24	41	303.9	0
24	41	304	0
24	41	304.1	0
24	41	304.2	0
24	41	304.3	0
24	41	304.4	0
24	41	304.5	0
24	41	304.6	0
24	41	304.7	0
24	41	304.8	0
24	41	304.9	0
24	41	305	0
24	41	305.1	0
24	41	305.2	0
24	41	305.3	0
24	41	305.4	0
24	41	305.5	0
24	41	305.6	0
24	41	305.7	0
24	41	305.8	0
24	41	305.9	0
24	41	306	0
24	41	306.1	0
24	41	306.2	0
24	41	306.3	0
24	41	306.4	0
24	41	306.5	0
24	41	306.6	0
24	41	306.7	0
24	41	306.8	0
24	41	306.9	0
24	41	307	0
24	41	307.1	0
24	41	307.2	0
24	41	307.3	0
24	41	307.4	0
24	41	307.5	0
24	41	307.6	0
24	41	307.7	0
24	41	307.8	0
24	41	307.9	0
24	41	308	0
24	41	308.1	0
24	41	308.2	0
24	41	308.3	0
24	41	308.4	0
24	41	308.5	0
24	41	308.6	0
24	41	308.7	0
24	41	308.8	0
24	41	308.9	0
24	41	309	0
24	41	309.1	0
24	41	309.2	0
24	41	309.3	0
24	41	309.4	0
24	41	309.5	0
24	41	309.6	0
24	41	309.7	0
24	41	309.8	0
24	41	309.9	0
24	41	310	0
24	41	310.1	0
24	41	310.2	0
24	41	310.3	0
24	41	310.4	0
24	41	310.5	0
24	41	310.6	0
24	41	310.7	0
24	41	310.8	0
24	41	310.9	0
24	41	311	0
24	41	311.1	0
24	41	311.2	0
24	41	311.3	0
24	41	311.4	0
24	41	311.5	0
24	41	311.6	0
24	41	311.7	0
24	41	311.8	0
24	41	311.9	0
24	41	312	0
24	41	312.1	0
24	41	312.2	0
24	41	312.3	0
24	41	312.4	0
24	41	312.5	0
24	41	312.6	0
24	41	312.7	0
24	41	312.8	0
24	41	312.9	0
24	41	313	0
24	41	313.1	0
24	41	313.2	0
24	41	313.3	0
24	41	313.4	0
24	41	313.5	0
24	41	313.6	0
24	41	313.7	0
24	41	313.8	0
24	41	313.9	0
24	41	314	0
24	41	314.1	0
24	41	314.2	0
24	41	314.3	0
24	41	314.4	0
24	41	314.5	0
24	41	314.6	0
24	41	314.7	0
24	41	314.8	0
24	41	314.9	0
24	41	315	0
24	41	315.1	0
24	41	315.2	0
24	41	315.3	0
24	41	315.4	0
24	41	315.5	0
24	41	315.6	0
24	41	315.7	0
24	41	315.8	0
24	41	315.9	0
24	41	316	0
24	41	316.1	0
24	41	316.2	0
24	41	316.3	0
24	41	316.4	0
24	41	316.5	0
24	41	316.6	0
24	41	316.7	0
24	41	316.8	0
24	41	316.9	0
24	41	317	0
24	41	317.1	0
24	41	317.2	0
24	41	317.3	0
24	41	317.4	0
24	41	317.5	0
24	41	317.6	0
24	41	317.7	0
24	41	317.8	0
24	41	317.9	0
24	41	318	0
24	41	318.1	0
24	41	318.2	0
24	41	318.3	0
24	41	318.4	0
24	41	318.5	0
24	41	318.6	0
24	41	318.7	0
24	41	318.8	0
24	41	318.9	0
24	41	319	0
24	41	319.1	0
24	41	319.2	0
24	41	319.3	0
24	41	319.4	0
24	41	319.5	0
24	41	319.6	0
24	41	319.7	0
24	41	319.8	0
24	41	319.9	0
24	41	320	0
24	41	320.1	0
24	41	320.2	0
24	41	320.3	0
24	41	320.4	0
24	41	320.5	0
24	41	320.6	0
24	41	320.7	0
24	41	320.8	0
24	41	320.9	0
24	41	321	0
24	41	321.1	0
24	41	321.2	0
24	41	321.3	0
24	41	321.4	0
24	41	321.5	0
24	41	321.6	0
24	41	321.7	0
24	41	321.8	0
24	41	321.9	0
24	41	322	0
24	41	322.1	0
24	41	322.2	0
24	41	322.3	0
24	41	322.4	0
24	41	322.5	0
24	41	322.6	0
24	41	322.7	0
24	41	322.8	0
24	41	322.9	0
24	41	323	0
24	41	323.1	0
24	41	323.2	0
24	41	323.3	0
24	41	323.4	0
24	41	323.5	0
24	41	323.6	0
24	41	323.7	0
24	41	323.8	0
24	41	323.9	0
24	41	324	0
24	41	324.1	0
24	41	324.2	0
24	41	324.3	0
24	41	324.4	0
24	41	324.5	0
24	41	324.6	0
24	41	324.7	0
24	41	324.8	0
24	41	324.9	0
24	41	325	0
24	41	325.1	0
24	41	325.2	0
24	41	325.3	0
24	41	325.4	0
24	41	325.5	0
24	41	325.6	0
24	41	325.7	0
24	41	325.8	0
24	41	325.9	0
24	41	326	0
24	41	326.1	0
24	41	326.2	0
24	41	326.3	0
24	41	326.4	0
24	41	326.5	0
24	41	326.6	0
24	41	326.7	0
24	41	326.8	0
24	41	326.9	0
24	41	327	0
24	41	327.1	0
24	41	327.2	0
24	41	327.3	0
24	41	327.4	0
24	41	327.5	0
24	41	327.6	0
24	41	327.7	0
24	41	327.8	0
24	41	327.9	0
24	41	328	0
24	41	328.1	0
24	41	328.2	0
24	41	328.3	0
24	41	328.4	0
24	41	328.5	0
24	41	328.6	0
24	41	328.7	0
24	41	328.8	0
24	41	328.9	0
24	41	329	0
24	41	329.1	0
24	41	329.2	0
24	41	329.3	0
24	41	329.4	0
24	41	329.5	0
24	41	329.6	0
24	41	329.7	0
24	41	329.8	0
24	41	329.9	0
24	41	330	0
24	41	330.1	0
24	41	330.2	0
24	41	330.3	0
24	41	330.4	0
24	41	330.5	0
24	41	330.6	0
24	41	330.7	0
24	41	330.8	0
24	41	330.9	0
24	41	331	0
24	41	331.1	0
24	41	331.2	0
24	41	331.3	0
24	41	331.4	0
24	41	331.5	0
24	41	331.6	0
24	41	331.7	0
24	41	331.8	0
24	41	331.9	0
24	41	332	0
24	41	332.1	0
24	41	332.2	0
24	41	332.3	0
24	41	332.4	0
24	41	332.5	0
24	41	332.6	0
24	41	332.7	0
24	41	332.8	0
24	41	332.9	0
24	41	333	0
24	41	333.1	0
24	41	333.2	0
24	41	333.3	0
24	41	333.4	0
24	41	333.5	0
24	41	333.6	0
24	41	333.7	0
24	41	333.8	0
24	41	333.9	0
24	41	334	0
24	41	334.1	0
24	41	334.2	0
24	41	334.3	0
24	41	334.4	0
24	41	334.5	0
24	41	334.6	0
24	41	334.7	0
24	41	334.8	0
24	41	334.9	0
24	41	335	0
24	41	335.1	0
24	41	335.2	0
24	41	335.3	0
24	41	335.4	0
24	41	335.5	0
24	41	335.6	0
24	41	335.7	0
24	41	335.8	0
24	41	335.9	0
24	41	336	0
24	41	336.1	0
24	41	336.2	0
24	41	336.3	0
24	41	336.4	0
24	41	336.5	0
24	41	336.6	0
24	41	336.7	0
24	41	336.8	0
24	41	336.9	0
24	41	337	0
24	41	337.1	0
24	41	337.2	0
24	41	337.3	0
24	41	337.4	0
24	41	337.5	0
24	41	337.6	0
24	41	337.7	0
24	41	337.8	0
24	41	337.9	0
24	41	338	0
24	41	338.1	0
24	41	338.2	0
24	41	338.3	0
24	41	338.4	0
24	41	338.5	0
24	41	338.6	0
24	41	338.7	0
24	41	338.8	0
24	41	338.9	0
24	41	339	0
24	41	339.1	0
24	41	339.2	0
24	41	339.3	0
24	41	339.4	0
24	41	339.5	0
24	41	339.6	0
24	41	339.7	0
24	41	339.8	0
24	41	339.9	0
24	41	340	0
24	41	340.1	0
24	41	340.2	0
24	41	340.3	0
24	41	340.4	0
24	41	340.5	0
24	41	340.6	0
24	41	340.7	0
24	41	340.8	0
24	41	340.9	0
24	41	341	0
24	41	341.1	0
24	41	341.2	0
24	41	341.3	0
24	41	341.4	0
24	41	341.5	0
24	41	341.6	0
24	41	341.7	0
24	41	341.8	0
24	41	341.9	0
24	41	342	0
24	41	342.1	0
24	41	342.2	0
24	41	342.3	0
24	41	342.4	0
24	41	342.5	0
24	41	342.6	0
24	41	342.7	0
24	41	342.8	0
24	41	342.9	0
24	41	343	0
24	41	343.1	0
24	41	343.2	0
24	41	343.3	0
24	41	343.4	0
24	41	343.5	0
24	41	343.6	0
24	41	343.7	0
24	41	343.8	0
24	41	343.9	0
24	41	344	0
24	41	344.1	0
24	41	344.2	0
24	41	344.3	0
24	41	344.4	0
24	41	344.5	0
24	41	344.6	0
24	41	344.7	0
24	41	344.8	0
24	41	344.9	0
24	41	345	0
24	41	345.1	0
24	41	345.2	0
24	41	345.3	0
24	41	345.4	0
24	41	345.5	0
24	41	345.6	0
24	41	345.7	0
24	41	345.8	0
24	41	345.9	0
24	41	346	0
24	41	346.1	0
24	41	346.2	0
24	41	346.3	0
24	41	346.4	0
24	41	346.5	0
24	41	346.6	0
24	41	346.7	0
24	41	346.8	0
24	41	346.9	0
24	41	347	0
24	41	347.1	0
24	41	347.2	0
24	41	347.3	0
24	41	347.4	0
24	41	347.5	0
24	41	347.6	0
24	41	347.7	0
24	41	347.8	0
24	41	347.9	0
24	41	348	0
24	41	348.1	0
24	41	348.2	0
24	41	348.3	0
24	41	348.4	0
24	41	348.5	0
24	41	348.6	0
24	41	348.7	0
24	41	348.8	0
24	41	348.9	0
24	41	349	0
24	41	349.1	0
24	41	349.2	0
24	41	349.3	0
24	41	349.4	0
24	41	349.5	0
24	41	349.6	0
24	41	349.7	0
24	41	349.8	0
24	41	349.9	0
24	41	350	0
24	41	350.1	0
24	41	350.2	0
24	41	350.3	0
24	41	350.4	0
24	41	350.5	0
24	41	350.6	0
24	41	350.7	0
24	41	350.8	0
24	41	350.9	0
24	41	351	0
24	41	351.1	0
24	41	351.2	0
24	41	351.3	0
24	41	351.4	0
24	41	351.5	0
24	41	351.6	0
24	41	351.7	0
24	41	351.8	0
24	41	351.9	0
24	41	352	0
24	41	352.1	0
24	41	352.2	0
24	41	352.3	0
24	41	352.4	0
24	41	352.5	0
24	41	352.6	0
24	41	352.7	0
24	41	352.8	0
24	41	352.9	0
24	41	353	0
24	41	353.1	0
24	41	353.2	0
24	41	353.3	0
24	41	353.4	0
24	41	353.5	0
24	41	353.6	0
24	41	353.7	0
24	41	353.8	0
24	41	353.9	0
24	41	354	0
24	41	354.1	0
24	41	354.2	0
24	41	354.3	0
24	41	354.4	0
24	41	354.5	0
24	41	354.6	0
24	41	354.7	0
24	41	354.8	0
24	41	354.9	0
24	41	355	0
24	41	355.1	0
24	41	355.2	0
24	41	355.3	0
24	41	355.4	0
24	41	355.5	0
24	41	355.6	0
24	41	355.7	0
24	41	355.8	0
24	41	355.9	0
24	41	356	0
24	41	356.1	0
24	41	356.2	0
24	41	356.3	0
24	41	356.4	0
24	41	356.5	0
24	41	356.6	0
24	41	356.7	0
24	41	356.8	0
24	41	356.9	0
24	41	357	0
24	41	357.1	0
24	41	357.2	0
24	41	357.3	0
24	41	357.4	0
24	41	357.5	0
24	41	357.6	0
24	41	357.7	0
24	41	357.8	0
24	41	357.9	0
24	41	358	0
24	41	358.1	0
24	41	358.2	0
24	41	358.3	0
24	41	358.4	0
24	41	358.5	0
24	41	358.6	0
24	41	358.7	0
24	41	358.8	0
24	41	358.9	0
24	41	359	0
24	41	359.1	0
24	41	359.2	0
24	41	359.3	0
24	41	359.4	0
24	41	359.5	0
24	41	359.6	0
24	41	359.7	0
24	41	359.8	0
24	41	359.9	0
24	41	360	0
24	41	360.1	0
24	41	360.2	0
24	41	360.3	0
24	41	360.4	0
24	41	360.5	0
24	41	360.6	0
24	41	360.7	0
24	41	360.8	0
24	41	360.9	0
24	41	361	0
24	41	361.1	0
24	41	361.2	0
24	41	361.3	0
24	41	361.4	0
24	41	361.5	0
24	41	361.6	0
24	41	361.7	0
24	41	361.8	0
24	41	361.9	0
24	41	362	0
24	41	362.1	0
24	41	362.2	0
24	41	362.3	0
24	41	362.4	0
24	41	362.5	0
24	41	362.6	0
24	41	362.7	0
24	41	362.8	0
24	41	362.9	0
24	41	363	0
24	41	363.1	0
24	41	363.2	0
24	41	363.3	0
24	41	363.4	0
24	41	363.5	0
24	41	363.6	0
24	41	363.7	0
24	41	363.8	0
24	41	363.9	0
24	41	364	0
24	41	364.1	0
24	41	364.2	0
24	41	364.3	0
24	41	364.4	0
24	41	364.5	0
24	41	364.6	0
24	41	364.7	0
24	41	364.8	0
24	41	364.9	0
24	41	365	0
24	41	365.1	0
24	41	365.2	0
24	41	365.3	0
24	41	365.4	0
24	41	365.5	0
24	41	365.6	0
24	41	365.7	0
24	41	365.8	0
24	41	365.9	0
24	41	366	0
24	41	366.1	0
24	41	366.2	0
24	41	366.3	0
24	41	366.4	0
24	41	366.5	0
24	41	366.6	0
24	41	366.7	0
24	41	366.8	0
24	41	366.9	0
24	41	367	0
24	41	367.1	0
24	41	367.2	0
24	41	367.3	0
24	41	367.4	0
24	41	367.5	0
24	41	367.6	0
24	41	367.7	0
24	41	367.8	0
24	41	367.9	0
24	41	368	0
24	41	368.1	0
24	41	368.2	0
24	41	368.3	0
24	41	368.4	0
24	41	368.5	0
24	41	368.6	0
24	41	368.7	0
24	41	368.8	0
24	41	368.9	0
24	41	369	0
24	41	369.1	0
24	41	369.2	0
24	41	369.3	0
24	41	369.4	0
24	41	369.5	0
24	41	369.6	0
24	41	369.7	0
24	41	369.8	0
24	41	369.9	0
24	41	370	0
24	41	370.1	0
24	41	370.2	0
24	41	370.3	0
24	41	370.4	0
24	41	370.5	0
24	41	370.6	0
24	41	370.7	0
24	41	370.8	0
24	41	370.9	0
24	41	371	0
24	41	371.1	0
24	41	371.2	0
24	41	371.3	0
24	41	371.4	0
24	41	371.5	0
24	41	371.6	0
24	41	371.7	0
24	41	371.8	0
24	41	371.9	0
24	41	372	0
24	41	372.1	0
24	41	372.2	0
24	41	372.3	0
24	41	372.4	0
24	41	372.5	0
24	41	372.6	0
24	41	372.7	0
24	41	372.8	0
24	41	372.9	0
24	41	373	0
24	41	373.1	0
24	41	373.2	0
24	41	373.3	0
24	41	373.4	0
24	41	373.5	0
24	41	373.6	0
24	41	373.7	0
24	41	373.8	0
24	41	373.9	0
24	41	374	0
24	41	374.1	0
24	41	374.2	0
24	41	374.3	0
24	41	374.4	0
24	41	374.5	0
24	41	374.6	0
24	41	374.7	0
24	41	374.8	0
24	41	374.9	0
24	41	375	0
24	41	375.1	0
24	41	375.2	0
24	41	375.3	0
24	41	375.4	0
24	41	375.5	0
24	41	375.6	0
24	41	375.7	0
24	41	375.8	0
24	41	375.9	0
24	41	376	0
24	41	376.1	0
24	41	376.2	0
24	41	376.3	0
24	41	376.4	0
24	41	376.5	0
24	41	376.6	0
24	41	376.7	0
24	41	376.8	0
24	41	376.9	0
24	41	377	0
24	41	377.1	0
24	41	377.2	0
24	41	377.3	0
24	41	377.4	0
24	41	377.5	0
24	41	377.6	0
24	41	377.7	0
24	41	377.8	0
24	41	377.9	0
24	41	378	0
24	41	378.1	0
24	41	378.2	0
24	41	378.3	0
24	41	378.4	0
24	41	378.5	0
24	41	378.6	0
24	41	378.7	0
24	41	378.8	0
24	41	378.9	0
24	41	379	0
24	41	379.1	0
24	41	379.2	0
24	41	379.3	0
24	41	379.4	0
24	41	379.5	0
24	41	379.6	0
24	41	379.7	0
24	41	379.8	0
24	41	379.9	0
24	41	380	0
24	41	380.1	0
24	41	380.2	0
24	41	380.3	0
24	41	380.4	0
24	41	380.5	0
24	41	380.6	0
24	41	380.7	0
24	41	380.8	0
24	41	380.9	0
24	41	381	0
24	41	381.1	0
24	41	381.2	0
24	41	381.3	0
24	41	381.4	0
24	41	381.5	0
24	41	381.6	0
24	41	381.7	0
24	41	381.8	0
24	41	381.9	0
24	41	382	0
24	41	382.1	0
24	41	382.2	0
24	41	382.3	0
24	41	382.4	0
24	41	382.5	0
24	41	382.6	0
24	41	382.7	0
24	41	382.8	0
24	41	382.9	0
24	41	383	0
24	41	383.1	0
24	41	383.2	0
24	41	383.3	0
24	41	383.4	0
24	41	383.5	0
24	41	383.6	0
24	41	383.7	0
24	41	383.8	0
24	41	383.9	0
24	41	384	0
24	41	384.1	0
24	41	384.2	0
24	41	384.3	0
24	41	384.4	0
24	41	384.5	0
24	41	384.6	0
24	41	384.7	0
24	41	384.8	0
24	41	384.9	0
24	41	385	0
24	41	385.1	0
24	41	385.2	0
24	41	385.3	0
24	41	385.4	0
24	41	385.5	0
24	41	385.6	0
24	41	385.7	0
24	41	385.8	0
24	41	385.9	0
24	41	386	0
24	41	386.1	0
24	41	386.2	0
24	41	386.3	0
24	41	386.4	0
24	41	386.5	0
24	41	386.6	0
24	41	386.7	0
24	41	386.8	0
24	41	386.9	0
24	41	387	0
24	41	387.1	0
24	41	387.2	0
24	41	387.3	0
24	41	387.4	0
24	41	387.5	0
24	41	387.6	0
24	41	387.7	0
24	41	387.8	0
24	41	387.9	0
24	41	388	0
24	41	388.1	0
24	41	388.2	0
24	41	388.3	0
24	41	388.4	0
24	41	388.5	0
24	41	388.6	0
24	41	388.7	0
24	41	388.8	0
24	41	388.9	0
24	41	389	0
24	41	389.1	0
24	41	389.2	0
24	41	389.3	0
24	41	389.4	0
24	41	389.5	0
24	41	389.6	0
24	41	389.7	0
24	41	389.8	0
24	41	389.9	0
24	41	390	0
24	41	390.1	0
24	41	390.2	0
24	41	390.3	0
24	41	390.4	0
24	41	390.5	0
24	41	390.6	0
24	41	390.7	0
24	41	390.8	0
24	41	390.9	0
24	41	391	0
24	41	391.1	0
24	41	391.2	0
24	41	391.3	0
24	41	391.4	0
24	41	391.5	0
24	41	391.6	0
24	41	391.7	0
24	41	391.8	0
24	41	391.9	0
24	41	392	0
24	41	392.1	0
24	41	392.2	0
24	41	392.3	0
24	41	392.4	0
24	41	392.5	0
24	41	392.6	0
24	41	392.7	0
24	41	392.8	0
24	41	392.9	0
24	41	393	0
24	41	393.1	0
24	41	393.2	0
24	41	393.3	0
24	41	393.4	0
24	41	393.5	0
24	41	393.6	0
24	41	393.7	0
24	41	393.8	0
24	41	393.9	0
24	41	394	0
24	41	394.1	0
24	41	394.2	0
24	41	394.3	0
24	41	394.4	0
24	41	394.5	0
24	41	394.6	0
24	41	394.7	0
24	41	394.8	0
24	41	394.9	0
24	41	395	0
24	41	395.1	0
24	41	395.2	0
24	41	395.3	0
24	41	395.4	0
24	41	395.5	0
24	41	395.6	0
24	41	395.7	0
24	41	395.8	0
24	41	395.9	0
24	41	396	0
24	41	396.1	0
24	41	396.2	0
24	41	396.3	0
24	41	396.4	0
24	41	396.5	0
24	41	396.6	0
24	41	396.7	0
24	41	396.8	0
24	41	396.9	0
24	41	397	0
24	41	397.1	0
24	41	397.2	0
24	41	397.3	0
24	41	397.4	0
24	41	397.5	0
24	41	397.6	0
24	41	397.7	0
24	41	397.8	0
24	41	397.9	0
24	41	398	0
24	41	398.1	0
24	41	398.2	0
24	41	398.3	0
24	41	398.4	0
24	41	398.5	0
24	41	398.6	0
24	41	398.7	0
24	41	398.8	0
24	41	398.9	0
24	41	399	0
24	41	399.1	0
24	41	399.2	0
24	41	399.3	0
24	41	399.4	0
24	41	399.5	0
24	41	399.6	0
24	41	399.7	0
24	41	399.8	0
24	41	399.9	0
24	41	400	0
24	41	400.1	0
24	41	400.2	0
24	41	400.3	0
24	41	400.4	0
24	41	400.5	0
24	41	400.6	0
24	41	400.7	0
24	41	400.8	0
24	41	400.9	0
24	41	401	0
24	41	401.1	0
24	41	401.2	0
24	41	401.3	0
24	41	401.4	0
24	41	401.5	0
24	41	401.6	0
24	41	401.7	0
24	41	401.8	0
24	41	401.9	0
24	41	402	0
24	41	402.1	0
24	41	402.2	0
24	41	402.3	0
24	41	402.4	0
24	41	402.5	0
24	41	402.6	0
24	41	402.7	0
24	41	402.8	0
24	41	402.9	0
24	41	403	0
24	41	403.1	0
24	41	403.2	0
24	41	403.3	0
24	41	403.4	0
24	41	403.5	0
24	41	403.6	0
24	41	403.7	0
24	41	403.8	0
24	41	403.9	0
24	41	404	0
24	41	404.1	0
24	41	404.2	0
24	41	404.3	0
24	41	404.4	0
24	41	404.5	0
24	41	404.6	0
24	41	404.7	0
24	41	404.8	0
24	41	404.9	0
24	41	405	0
24	41	405.1	0
24	41	405.2	0
24	41	405.3	0
24	41	405.4	0
24	41	405.5	0
24	41	405.6	0
24	41	405.7	0
24	41	405.8	0
24	41	405.9	0
24	41	406	0
24	41	406.1	0
24	41	406.2	0
24	41	406.3	0
24	41	406.4	0
24	41	406.5	0
24	41	406.6	0
24	41	406.7	0
24	41	406.8	0
24	41	406.9	0
24	41	407	0
24	41	407.1	0
24	41	407.2	0
24	41	407.3	0
24	41	407.4	0
24	41	407.5	0
24	41	407.6	0
24	41	407.7	0
24	41	407.8	0
24	41	407.9	0
24	41	408	0
24	41	408.1	0
24	41	408.2	0
24	41	408.3	0
24	41	408.4	0
24	41	408.5	0
24	41	408.6	0
24	41	408.7	0
24	41	408.8	0
24	41	408.9	0
24	41	409	0
24	41	409.1	0
24	41	409.2	0
24	41	409.3	0
24	41	409.4	0
24	41	409.5	0
24	41	409.6	0
24	41	409.7	0
24	41	409.8	0
24	41	409.9	0
24	41	410	0
24	41	410.1	0
24	41	410.2	0
[...]
93	97	792.1	0
93	97	792.2	0
93	97	792.3	0
93	97	792.4	0
93	97	792.5	0
93	97	792.6	0
93	97	792.7	0
93	97	792.8	0
93	97	792.9	0
93	97	793	0
93	97	793.1	0
93	97	793.2	0
93	97	793.3	0
93	97	793.4	0
93	97	793.5	0
93	97	793.6	0
93	97	793.7	0
93	97	793.8	0
93	97	793.9	0
93	97	794	0
93	97	794.1	0
93	97	794.2	0
93	97	794.3	0
93	97	794.4	0
93	97	794.5	0
93	97	794.6	0
93	97	794.7	0
93	97	794.8	0
93	97	794.9	0
93	97	795	0
93	97	795.1	0
93	97	795.2	0
93	97	795.3	0
93	97	795.4	0
93	97	795.5	0
93	97	795.6	0
93	97	795.7	0
93	97	795.8	0
93	97	795.9	0
93	97	796	0
93	97	796.1	0
93	97	796.2	0
93	97	796.3	0
93	97	796.4	0
93	97	796.5	0
93	97	796.6	0
93	97	796.7	0
93	97	796.8	0
93	97	796.9	0
93	97	797	0
93	97	797.1	0
93	97	797.2	0
93	97	797.3	0
93	97	797.4	0
93	97	797.5	0
93	97	797.6	0
93	97	797.7	0
93	97	797.8	0
93	97	797.9	0
93	97	798	0
93	97	798.1	0
93	97	798.2	0
93	97	798.3	0
93	97	798.4	0
93	97	798.5	0
93	97	798.6	0
93	97	798.7	0
93	97	798.8	0
93	97	798.9	0
93	97	799	0
93	97	799.1	0
93	97	799.2	0
93	97	799.3	0
93	97	799.4	0
93	97	799.5	0
93	97	799.6	0
93	97	799.7	0
93	97	799.8	0
93	97	799.9	0
93	97	800	0
93	97	800.1	0
93	97	800.2	0
93	97	800.3	0
93	97	800.4	0
93	97	800.5	0
93	97	800.6	0
93	97	800.7	0
93	97	800.8	0
93	97	800.9	0
93	97	801	0
93	97	801.1	0
93	97	801.2	0
93	97	801.3	0
93	97	801.4	0
93	97	801.5	0
93	97	801.6	0
93	97	801.7	0
93	97	801.8	0
93	97	801.9	0
93	97	802	0
93	97	802.1	0
93	97	802.2	0
93	97	802.3	0
93	97	802.4	0
93	97	802.5	0
93	97	802.6	0
93	97	802.7	0
93	97	802.8	0
93	97	802.9	0
93	97	803	0
93	97	803.1	0
93	97	803.2	0
93	97	803.3	0
93	97	803.4	0
93	97	803.5	0
93	97	803.6	0
93	97	803.7	0
93	97	803.8	0
93	97	803.9	0
93	97	804	0
93	97	804.1	0
93	97	804.2	0
93	97	804.3	0
93	97	804.4	0
93	97	804.5	0
93	97	804.6	0
93	97	804.7	0
93	97	804.8	0
93	97	804.9	0
93	97	805	0
93	97	805.1	0
93	97	805.2	0
93	97	805.3	0
93	97	805.4	0
93	97	805.5	0
93	97	805.6	0
93	97	805.7	0
93	97	805.8	0
93	97	805.9	0
93	97	806	0
93	97	806.1	0
93	97	806.2	0
93	97	806.3	0
93	97	806.4	0
93	97	806.5	0
93	97	806.6	0
93	97	806.7	0
93	97	806.8	0
93	97	806.9	0
93	97	807	0
93	97	807.1	0
93	97	807.2	0
93	97	807.3	0
93	97	807.4	0
93	97	807.5	0
93	97	807.6	0
93	97	807.7	0
93	97	807.8	0
93	97	807.9	0
93	97	808	0
93	97	808.1	0
93	97	808.2	0
93	97	808.3	0
93	97	808.4	0
93	97	808.5	0
93	97	808.6	0
93	97	808.7	0
93	97	808.8	0
93	97	808.9	0
93	97	809	0
93	97	809.1	0
93	97	809.2	0
93	97	809.3	0
93	97	809.4	0
93	97	809.5	0
93	97	809.6	0
93	97	809.7	0
93	97	809.8	0
93	97	809.9	0
93	97	810	0
93	97	810.1	0
93	97	810.2	0
93	97	810.3	0
93	97	810.4	0
93	97	810.5	0
93	97	810.6	0
93	97	810.7	0
93	97	810.8	0
93	97	810.9	0
93	97	811	0
93	97	811.1	0
93	97	811.2	0
93	97	811.3	0
93	97	811.4	0
93	97	811.5	0
93	97	811.6	0
93	97	811.7	0
93	97	811.8	0
93	97	811.9	0
93	97	812	0
93	97	812.1	0
93	97	812.2	0
93	97	812.3	0
93	97	812.4	0
93	97	812.5	0
93	97	812.6	0
93	97	812.7	0
93	97	812.8	0
93	97	812.9	0
93	97	813	0
93	97	813.1	0
93	97	813.2	0
93	97	813.3	0
93	97	813.4	0
93	97	813.5	0
93	97	813.6	0
93	97	813.7	0
93	97	813.8	0
93	97	813.9	0
93	97	814	0
93	97	814.1	0
93	97	814.2	0
93	97	814.3	0
93	97	814.4	0
93	97	814.5	0
93	97	814.6	0
93	97	814.7	0
93	97	814.8	0
93	97	814.9	0
93	97	815	0
93	97	815.1	0
93	97	815.2	0
93	97	815.3	0
93	97	815.4	0
93	97	815.5	0
93	97	815.6	0
93	97	815.7	0
93	97	815.8	0
93	97	815.9	0
93	97	816	0
93	97	816.1	0
93	97	816.2	0
93	97	816.3	0
93	97	816.4	0
93	97	816.5	0
93	97	816.6	0
93	97	816.7	0
93	97	816.8	0
93	97	816.9	0
93	97	817	0
93	97	817.1	0
93	97	817.2	0
93	97	817.3	0
93	97	817.4	0
93	97	817.5	0
93	97	817.6	0
93	97	817.7	0
93	97	817.8	0
93	97	817.9	0
93	97	818	0
93	97	818.1	0
93	97	818.2	0
93	97	818.3	0
93	97	818.4	0
93	97	818.5	0
93	97	818.6	0
93	97	818.7	0
93	97	818.8	0
93	97	818.9	0
93	97	819	0
93	97	819.1	0
93	97	819.2	0
93	97	819.3	0
93	97	819.4	0
93	97	819.5	0
93	97	819.6	0
93	97	819.7	0
93	97	819.8	0
93	97	819.9	0
93	97	820	0
93	97	820.1	0
93	97	820.2	0
93	97	820.3	0
93	97	820.4	0
93	97	820.5	0
93	97	820.6	0
93	97	820.7	0
93	97	820.8	0
93	97	820.9	0
93	97	821	0
93	97	821.1	0
93	97	821.2	0
93	97	821.3	0
93	97	821.4	0
93	97	821.5	0
93	97	821.6	0
93	97	821.7	0
93	97	821.8	0
93	97	821.9	0
93	97	822	0
93	97	822.1	0
93	97	822.2	0
93	97	822.3	0
93	97	822.4	0
93	97	822.5	0
93	97	822.6	0
93	97	822.7	0
93	97	822.8	0
93	97	822.9	0
93	97	823	0
93	97	823.1	0
93	97	823.2	0
93	97	823.3	0
93	97	823.4	0
93	97	823.5	0
93	97	823.6	0
93	97	823.7	0
93	97	823.8	0
93	97	823.9	0
93	97	824	0
93	97	824.1	0
93	97	824.2	0
93	97	824.3	0
93	97	824.4	0
93	97	824.5	0
93	97	824.6	0
93	97	824.7	0
93	97	824.8	0
93	97	824.9	0
93	97	825	0
93	97	825.1	0
93	97	825.2	0
93	97	825.3	0
93	97	825.4	0
93	97	825.5	0
93	97	825.6	0
93	97	825.7	0
93	97	825.8	0
93	97	825.9	0
93	97	826	0
93	97	826.1	0
93	97	826.2	0
93	97	826.3	0
93	97	826.4	0
93	97	826.5	0
93	97	826.6	0
93	97	826.7	0
93	97	826.8	0
93	97	826.9	0
93	97	827	0
93	97	827.1	0
93	97	827.2	0
93	97	827.3	0
93	97	827.4	0
93	97	827.5	0
93	97	827.6	0
93	97	827.7	0
93	97	827.8	0
93	97	827.9	0
93	97	828	0
93	97	828.1	0
93	97	828.2	0
93	97	828.3	0
93	97	828.4	0
93	97	828.5	0
93	97	828.6	0
93	97	828.7	0
93	97	828.8	0
93	97	828.9	0
93	97	829	0
93	97	829.1	0
93	97	829.2	0
93	97	829.3	0
93	97	829.4	0
93	97	829.5	0
93	97	829.6	0
93	97	829.7	0
93	97	829.8	0
93	97	829.9	0
93	97	830	0
93	97	830.1	0
93	97	830.2	0
93	97	830.3	0
93	97	830.4	0
93	97	830.5	0
93	97	830.6	0
93	97	830.7	0
93	97	830.8	0
93	97	830.9	0
93	97	831	0
93	97	831.1	0
93	97	831.2	0
93	97	831.3	0
93	97	831.4	0
93	97	831.5	0
93	97	831.6	0
93	97	831.7	0
93	97	831.8	0
93	97	831.9	0
93	97	832	0
93	97	832.1	0
93	97	832.2	0
93	97	832.3	0
93	97	832.4	0
93	97	832.5	0
93	97	832.6	0
93	97	832.7	0
93	97	832.8	0
93	97	832.9	0
93	97	833	0
93	97	833.1	0
93	97	833.2	0
93	97	833.3	0
93	97	833.4	0
93	97	833.5	0
93	97	833.6	0
93	97	833.7	0
93	97	833.8	0
93	97	833.9	0
93	97	834	0
93	97	834.1	0
93	97	834.2	0
93	97	834.3	0
93	97	834.4	0
93	97	834.5	0
93	97	834.6	0
93	97	834.7	0
93	97	834.8	0
93	97	834.9	0
93	97	835	0
93	97	835.1	0
93	97	835.2	0
93	97	835.3	0
93	97	835.4	0
93	97	835.5	0
93	97	835.6	0
93	97	835.7	0
93	97	835.8	0
93	97	835.9	0
93	97	836	0
93	97	836.1	0
93	97	836.2	0
93	97	836.3	0
93	97	836.4	0
93	97	836.5	0
93	97	836.6	0
93	97	836.7	0
93	97	836.8	0
93	97	836.9	0
93	97	837	0
93	97	837.1	0
93	97	837.2	0
93	97	837.3	0
93	97	837.4	0
93	97	837.5	0
93	97	837.6	0
93	97	837.7	0
93	97	837.8	0
93	97	837.9	0
93	97	838	0
93	97	838.1	0
93	97	838.2	0
93	97	838.3	0
93	97	838.4	0
93	97	838.5	0
93	97	838.6	0
93	97	838.7	0
93	97	838.8	0
93	97	838.9	0
93	97	839	0
93	97	839.1	0
93	97	839.2	0
93	97	839.3	0
93	97	839.4	0
93	97	839.5	0
93	97	839.6	0
93	97	839.7	0
93	97	839.8	0
93	97	839.9	0
93	97	840	0
93	97	840.1	0
93	97	840.2	0
93	97	840.3	0
93	97	840.4	0
93	97	840.5	0
93	97	840.6	0
93	97	840.7	0
93	97	840.8	0
93	97	840.9	0
93	97	841	0
93	97	841.1	0
93	97	841.2	0
93	97	841.3	0
93	97	841.4	0
93	97	841.5	0
93	97	841.6	0
93	97	841.7	0
93	97	841.8	0
93	97	841.9	0
93	97	842	0
93	97	842.1	0
93	97	842.2	0
93	97	842.3	0
93	97	842.4	0
93	97	842.5	0
93	97	842.6	0
93	97	842.7	0
93	97	842.8	0
93	97	842.9	0
93	97	843	0
93	97	843.1	0
93	97	843.2	0
93	97	843.3	0
93	97	843.4	0
93	97	843.5	0
93	97	843.6	0
93	97	843.7	0
93	97	843.8	0
93	97	843.9	0
93	97	844	0
93	97	844.1	0
93	97	844.2	0
93	97	844.3	0
93	97	844.4	0
93	97	844.5	0
93	97	844.6	0
93	97	844.7	0
93	97	844.8	0
93	97	844.9	0
93	97	845	0
93	97	845.1	0
93	97	845.2	0
93	97	845.3	0
93	97	845.4	0
93	97	845.5	0
93	97	845.6	0
93	97	845.7	0
93	97	845.8	0
93	97	845.9	0
93	97	846	0
93	97	846.1	0
93	97	846.2	0
93	97	846.3	0
93	97	846.4	0
93	97	846.5	0
93	97	846.6	0
93	97	846.7	0
93	97	846.8	0
93	97	846.9	0
93	97	847	0
93	97	847.1	0
93	97	847.2	0
93	97	847.3	0
93	97	847.4	0
93	97	847.5	0
93	97	847.6	0
93	97	847.7	0
93	97	847.8	0
93	97	847.9	0
93	97	848	0
93	97	848.1	0
93	97	848.2	0
93	97	848.3	0
93	97	848.4	0
93	97	848.5	0
93	97	848.6	0
93	97	848.7	0
93	97	848.8	0
93	97	848.9	0
93	97	849	0
93	97	849.1	0
93	97	849.2	0
93	97	849.3	0
93	97	849.4	0
93	97	849.5	0
93	97	849.6	0
93	97	849.7	0
93	97	849.8	0
93	97	849.9	0
93	97	850	0
93	97	850.1	0
93	97	850.2	0
93	97	850.3	0
93	97	850.4	0
93	97	850.5	0
93	97	850.6	0
93	97	850.7	0
93	97	850.8	0
93	97	850.9	0
93	97	851	0
93	97	851.1	0
93	97	851.2	0
93	97	851.3	0
93	97	851.4	0
93	97	851.5	0
93	97	851.6	0
93	97	851.7	0
93	97	851.8	0
93	97	851.9	0
93	97	852	0
93	97	852.1	0
93	97	852.2	0
93	97	852.3	0
93	97	852.4	0
93	97	852.5	0
93	97	852.6	0
93	97	852.7	0
93	97	852.8	0
93	97	852.9	0
93	97	853	0
93	97	853.1	0
93	97	853.2	0
93	97	853.3	0
93	97	853.4	0
93	97	853.5	0
93	97	853.6	0
93	97	853.7	0
93	97	853.8	0
93	97	853.9	0
93	97	854	0
93	97	854.1	0
93	97	854.2	0
93	97	854.3	0
93	97	854.4	0
93	97	854.5	0
93	97	854.6	0
93	97	854.7	0
93	97	854.8	0
93	97	854.9	0
93	97	855	0
93	97	855.1	0
93	97	855.2	0
93	97	855.3	0
93	97	855.4	0
93	97	855.5	0
93	97	855.6	0
93	97	855.7	0
93	97	855.8	0
93	97	855.9	0
93	97	856	0
93	97	856.1	0
93	97	856.2	0
93	97	856.3	0
93	97	856.4	0
93	97	856.5	0
93	97	856.6	0
93	97	856.7	0
93	97	856.8	0
93	97	856.9	0
93	97	857	0
93	97	857.1	0
93	97	857.2	0
93	97	857.3	0
93	97	857.4	0
93	97	857.5	0
93	97	857.6	0
93	97	857.7	0
93	97	857.8	0
93	97	857.9	0
93	97	858	0
93	97	858.1	0
93	97	858.2	0
93	97	858.3	0
93	97	858.4	0
93	97	858.5	0
93	97	858.6	0
93	97	858.7	0
93	97	858.8	0
93	97	858.9	0
93	97	859	0
93	97	859.1	0
93	97	859.2	0
93	97	859.3	0
93	97	859.4	0
93	97	859.5	0
93	97	859.6	0
93	97	859.7	0
93	97	859.8	0
93	97	859.9	0
93	97	860	0
93	97	860.1	0
93	97	860.2	0
93	97	860.3	0
93	97	860.4	0
93	97	860.5	0
93	97	860.6	0
93	97	860.7	0
93	97	860.8	0
93	97	860.9	0
93	97	861	0
93	97	861.1	0
93	97	861.2	0
93	97	861.3	0
93	97	861.4	0
93	97	861.5	0
93	97	861.6	0
93	97	861.7	0
93	97	861.8	0
93	97	861.9	0
93	97	862	0
93	97	862.1	0
93	97	862.2	0
93	97	862.3	0
93	97	862.4	0
93	97	862.5	0
93	97	862.6	0
93	97	862.7	0
93	97	862.8	0
93	97	862.9	0
93	97	863	0
93	97	863.1	0
93	97	863.2	0
93	97	863.3	0
93	97	863.4	0
93	97	863.5	0
93	97	863.6	0
93	97	863.7	0
93	97	863.8	0
93	97	863.9	0
93	97	864	0
93	97	864.1	0
93	97	864.2	0
93	97	864.3	0
93	97	864.4	0
93	97	864.5	0
93	97	864.6	0
93	97	864.7	0
93	97	864.8	0
93	97	864.9	0
93	97	865	0
93	97	865.1	0
93	97	865.2	0
93	97	865.3	0
93	97	865.4	0
93	97	865.5	0
93	97	865.6	0
93	97	865.7	0
93	97	865.8	0
93	97	865.9	0
93	97	866	0
93	97	866.1	0
93	97	866.2	0
93	97	866.3	0
93	97	866.4	0
93	97	866.5	0
93	97	866.6	0
93	97	866.7	0
93	97	866.8	0
93	97	866.9	0
93	97	867	0
93	97	867.1	0
93	97	867.2	0
93	97	867.3	0
93	97	867.4	0
93	97	867.5	0
93	97	867.6	0
93	97	867.7	0
93	97	867.8	0
93	97	867.9	0
93	97	868	0
93	97	868.1	0
93	97	868.2	0
93	97	868.3	0
93	97	868.4	0
93	97	868.5	0
93	97	868.6	0
93	97	868.7	0
93	97	868.8	0
93	97	868.9	0
93	97	869	0
93	97	869.1	0
93	97	869.2	0
93	97	869.3	0
93	97	869.4	0
93	97	869.5	0
93	97	869.6	0
93	97	869.7	0
93	97	869.8	0
93	97	869.9	0
93	97	870	0
93	97	870.1	0
93	97	870.2	0
93	97	870.3	0
93	97	870.4	0
93	97	870.5	0
93	97	870.6	0
93	97	870.7	0
93	97	870.8	0
93	97	870.9	0
93	97	871	0
93	97	871.1	0
93	97	871.2	0
93	97	871.3	0
93	97	871.4	0
93	97	871.5	0
93	97	871.6	0
93	97	871.7	0
93	97	871.8	0
93	97	871.9	0
93	97	872	0
93	97	872.1	0
93	97	872.2	0
93	97	872.3	0
93	97	872.4	0
93	97	872.5	0
93	97	872.6	0
93	97	872.7	0
93	97	872.8	0
93	97	872.9	0
93	97	873	0
93	97	873.1	0
93	97	873.2	0
93	97	873.3	0
93	97	873.4	0
93	97	873.5	0
93	97	873.6	0
93	97	873.7	0
93	97	873.8	0
93	97	873.9	0
93	97	874	0
93	97	874.1	0
93	97	874.2	0
93	97	874.3	0
93	97	874.4	0
93	97	874.5	0
93	97	874.6	0
93	97	874.7	0
93	97	874.8	0
93	97	874.9	0
93	97	875	0
93	97	875.1	0
93	97	875.2	0
93	97	875.3	0
93	97	875.4	0
93	97	875.5	0
93	97	875.6	0
93	97	875.7	0
93	97	875.8	0
93	97	875.9	0
93	97	876	0
93	97	876.1	0
93	97	876.2	0
93	97	876.3	0
93	97	876.4	0
93	97	876.5	0
93	97	876.6	0
93	97	876.7	0
93	97	876.8	0
93	97	876.9	0
93	97	877	0
93	97	877.1	0
93	97	877.2	0
93	97	877.3	0
93	97	877.4	0
93	97	877.5	0
93	97	877.6	0
93	97	877.7	0
93	97	877.8	0
93	97	877.9	0
93	97	878	0
93	97	878.1	0
93	97	878.2	0
93	97	878.3	0
93	97	878.4	0
93	97	878.5	0
93	97	878.6	0
93	97	878.7	0
93	97	878.8	0
93	97	878.9	0
93	97	879	0
93	97	879.1	0
93	97	879.2	0
93	97	879.3	0
93	97	879.4	0
93	97	879.5	0
93	97	879.6	0
93	97	879.7	0
93	97	879.8	0
93	97	879.9	0
93	97	880	0
93	97	880.1	0
93	97	880.2	0
93	97	880.3	0
93	97	880.4	0
93	97	880.5	0
93	97	880.6	0
93	97	880.7	0
93	97	880.8	0
93	97	880.9	0
93	97	881	0
93	97	881.1	0
93	97	881.2	0
93	97	881.3	0
93	97	881.4	0
93	97	881.5	0
93	97	881.6	0
93	97	881.7	0
93	97	881.8	0
93	97	881.9	0
93	97	882	0
93	97	882.1	0
93	97	882.2	0
93	97	882.3	0
93	97	882.4	0
93	97	882.5	0
93	97	882.6	0
93	97	882.7	0
93	97	882.8	0
93	97	882.9	0
93	97	883	0
93	97	883.1	0
93	97	883.2	0
93	97	883.3	0
93	97	883.4	0
93	97	883.5	0
93	97	883.6	0
93	97	883.7	0
93	97	883.8	0
93	97	883.9	0
93	97	884	0
93	97	884.1	0
93	97	884.2	0
93	97	884.3	0
93	97	884.4	0
93	97	884.5	0
93	97	884.6	0
93	97	884.7	0
93	97	884.8	0
93	97	884.9	0
93	97	885	0
93	97	885.1	0
93	97	885.2	0
93	97	885.3	0
93	97	885.4	0
93	97	885.5	0
93	97	885.6	0
93	97	885.7	0
93	97	885.8	0
93	97	885.9	0
93	97	886	0
93	97	886.1	0
93	97	886.2	0
93	97	886.3	0
93	97	886.4	0
93	97	886.5	0
93	97	886.6	0
93	97	886.7	0
93	97	886.8	0
93	97	886.9	0
93	97	887	0
93	97	887.1	0
93	97	887.2	0
93	97	887.3	0
93	97	887.4	0
93	97	887.5	0
93	97	887.6	0
93	97	887.7	0
93	97	887.8	0
93	97	887.9	0
93	97	888	0
93	97	888.1	0
93	97	888.2	0
93	97	888.3	0
93	97	888.4	0
93	97	888.5	0
93	97	888.6	0
93	97	888.7	0
93	97	888.8	0
93	97	888.9	0
93	97	889	0
93	97	889.1	0
93	97	889.2	0
93	97	889.3	0
93	97	889.4	0
93	97	889.5	0
93	97	889.6	0
93	97	889.7	0
93	97	889.8	0
93	97	889.9	0
93	97	890	0
93	97	890.1	0
93	97	890.2	0
93	97	890.3	0
93	97	890.4	0
93	97	890.5	0
93	97	890.6	0
93	97	890.7	0
93	97	890.8	0
93	97	890.9	0
93	97	891	0
93	97	891.1	0
93	97	891.2	0
93	97	891.3	0
93	97	891.4	0
93	97	891.5	0
93	97	891.6	0
93	97	891.7	0
93	97	891.8	0
93	97	891.9	0
93	97	892	0
93	97	892.1	0
93	97	892.2	0
93	97	892.3	0
93	97	892.4	0
93	97	892.5	0
93	97	892.6	0
93	97	892.7	0
93	97	892.8	0
93	97	892.9	0
93	97	893	0
93	97	893.1	0
93	97	893.2	0
93	97	893.3	0
93	97	893.4	0
93	97	893.5	0
93	97	893.6	0
93	97	893.7	0
93	97	893.8	0
93	97	893.9	0
93	97	894	0
93	97	894.1	0
93	97	894.2	0
93	97	894.3	0
93	97	894.4	0
93	97	894.5	0
93	97	894.6	0
93	97	894.7	0
93	97	894.8	0
93	97	894.9	0
93	97	895	0
93	97	895.1	0
93	97	895.2	0
93	97	895.3	0
93	97	895.4	0
93	97	895.5	0
93	97	895.6	0
93	97	895.7	0
93	97	895.8	0
93	97	895.9	0
93	97	896	0
93	97	896.1	0
93	97	896.2	0
93	97	896.3	0
93	97	896.4	0
93	97	896.5	0
93	97	896.6	0
93	97	896.7	0
93	97	896.8	0
93	97	896.9	0
93	97	897	0
93	97	897.1	0
93	97	897.2	0
93	97	897.3	0
93	97	897.4	0
93	97	897.5	0
93	97	897.6	0
93	97	897.7	0
93	97	897.8	0
93	97	897.9	0
93	97	898	0
93	97	898.1	0
93	97	898.2	0
93	97	898.3	0
93	97	898.4	0
93	97	898.5	0
93	97	898.6	0
93	97	898.7	0
93	97	898.8	0
93	97	898.9	0
93	97	899	0
93	97	899.1	0
93	97	899.2	0
93	97	899.3	0
93	97	899.4	0
93	97	899.5	0
93	97	899.6	0
93	97	899.7	0
93	97	899.8	0
93	97	899.9	0
93	97	900	0
93	97	900.1	0
93	97	900.2	0
93	97	900.3	0
93	97	900.4	0
93	97	900.5	0
93	97	900.6	0
93	97	900.7	0
93	97	900.8	0
93	97	900.9	0
93	97	901	0
93	97	901.1	0
93	97	901.2	0
93	97	901.3	0
93	97	901.4	0
93	97	901.5	0
93	97	901.6	0
93	97	901.7	0
93	97	901.8	0
93	97	901.9	0
93	97	902	0
93	97	902.1	0
93	97	902.2	0
93	97	902.3	0
93	97	902.4	0
93	97	902.5	0
93	97	902.6	0
93	97	902.7	0
93	97	902.8	0
93	97	902.9	0
93	97	903	0
93	97	903.1	0
93	97	903.2	0
93	97	903.3	0
93	97	903.4	0
93	97	903.5	0
93	97	903.6	0
93	97	903.7	0
93	97	903.8	0
93	97	903.9	0
93	97	904	0
93	97	904.1	0
93	97	904.2	0
93	97	904.3	0
93	97	904.4	0
93	97	904.5	0
93	97	904.6	0
93	97	904.7	0
93	97	904.8	0
93	97	904.9	0
93	97	905	0
93	97	905.1	0
93	97	905.2	0
93	97	905.3	0
93	97	905.4	0
93	97	905.5	0
93	97	905.6	0
93	97	905.7	0
93	97	905.8	0
93	97	905.9	0
93	97	906	0
93	97	906.1	0
93	97	906.2	0
93	97	906.3	0
93	97	906.4	0
93	97	906.5	0
93	97	906.6	0
93	97	906.7	0
93	97	906.8	0
93	97	906.9	0
93	97	907	0
93	97	907.1	0
93	97	907.2	0
93	97	907.3	0
93	97	907.4	0
93	97	907.5	0
93	97	907.6	0
93	97	907.7	0
93	97	907.8	0
93	97	907.9	0
93	97	908	0
93	97	908.1	0
93	97	908.2	0
93	97	908.3	0
93	97	908.4	0
93	97	908.5	0
93	97	908.6	0
93	97	908.7	0
93	97	908.8	0
93	97	908.9	0
93	97	909	0
93	97	909.1	0
93	97	909.2	0
93	97	909.3	0
93	97	909.4	0
93	97	909.5	0
93	97	909.6	0
93	97	909.7	0
93	97	909.8	0
93	97	909.9	0
93	97	910	0
93	97	910.1	0
93	97	910.2	0
93	97	910.3	0
93	97	910.4	0
93	97	910.5	0
93	97	910.6	0
93	97	910.7	0
93	97	910.8	0
93	97	910.9	0
93	97	911	0
93	97	911.1	0
93	97	911.2	0
93	97	911.3	0
93	97	911.4	0
93	97	911.5	0
93	97	911.6	0
93	97	911.7	0
93	97	911.8	0
93	97	911.9	0
93	97	912	0
93	97	912.1	0
93	97	912.2	0
93	97	912.3	0
93	97	912.4	0
93	97	912.5	0
93	97	912.6	0
93	97	912.7	0
93	97	912.8	0
93	97	912.9	0
93	97	913	0
93	97	913.1	0
93	97	913.2	0
93	97	913.3	0
93	97	913.4	0
93	97	913.5	0
93	97	913.6	0
93	97	913.7	0
93	97	913.8	0
93	97	913.9	0
93	97	914	0
93	97	914.1	0
93	97	914.2	0
93	97	914.3	0
93	97	914.4	0
93	97	914.5	0
93	97	914.6	0
93	97	914.7	0
93	97	914.8	0
93	97	914.9	0
93	97	915	0
93	97	915.1	0
93	97	915.2	0
93	97	915.3	0
93	97	915.4	0
93	97	915.5	0
93	97	915.6	0
93	97	915.7	0
93	97	915.8	0
93	97	915.9	0
93	97	916	0
93	97	916.1	0
93	97	916.2	0
93	97	916.3	0
93	97	916.4	0
93	97	916.5	0
93	97	916.6	0
93	97	916.7	0
93	97	916.8	0
93	97	916.9	0
93	97	917	0
93	97	917.1	0
93	97	917.2	0
93	97	917.3	0
93	97	917.4	0
93	97	917.5	0
93	97	917.6	0
93	97	917.7	0
93	97	917.8	0
93	97	917.9	0
93	97	918	0
93	97	918.1	0
93	97	918.2	0
93	97	918.3	0
93	97	918.4	0
93	97	918.5	0
93	97	918.6	0
93	97	918.7	0
93	97	918.8	0
93	97	918.9	0
93	97	919	0
93	97	919.1	0
93	97	919.2	0
93	97	919.3	0
93	97	919.4	0
93	97	919.5	0
93	97	919.6	0
93	97	919.7	0
93	97	919.8	0
93	97	919.9	0
93	97	920	0
93	97	920.1	0
93	97	920.2	0
93	97	920.3	0
93	97	920.4	0
93	97	920.5	0
93	97	920.6	0
93	97	920.7	0
93	97	920.8	0
93	97	920.9	0
93	97	921	0
93	97	921.1	0
93	97	921.2	0
93	97	921.3	0
93	97	921.4	0
93	97	921.5	0
93	97	921.6	0
93	97	921.7	0
93	97	921.8	0
93	97	921.9	0
93	97	922	0
93	97	922.1	0
93	97	922.2	0
93	97	922.3	0
93	97	922.4	0
93	97	922.5	0
93	97	922.6	0
93	97	922.7	0
93	97	922.8	0
93	97	922.9	0
93	97	923	0
93	97	923.1	0
93	97	923.2	0
93	97	923.3	0
93	97	923.4	0
93	97	923.5	0
93	97	923.6	0
93	97	923.7	0
93	97	923.8	0
93	97	923.9	0
93	97	924	0
93	97	924.1	0
93	97	924.2	0
93	97	924.3	0
93	97	924.4	0
93	97	924.5	0
93	97	924.6	0
93	97	924.7	0
93	97	924.8	0
93	97	924.9	0
93	97	925	0
93	97	925.1	0
93	97	925.2	0
93	97	925.3	0
93	97	925.4	0
93	97	925.5	0
93	97	925.6	0
93	97	925.7	0
93	97	925.8	0
93	97	925.9	0
93	97	926	0
93	97	926.1	0
93	97	926.2	0
93	97	926.3	0
93	97	926.4	0
93	97	926.5	0
93	97	926.6	0
93	97	926.7	0
93	97	926.8	0
93	97	926.9	0
93	97	927	0
93	97	927.1	0
93	97	927.2	0
93	97	927.3	0
93	97	927.4	0
93	97	927.5	0
93	97	927.6	0
93	97	927.7	0
93	97	927.8	0
93	97	927.9	0
93	97	928	0
93	97	928.1	0
93	97	928.2	0
93	97	928.3	0
93	97	928.4	0
93	97	928.5	0
93	97	928.6	0
93	97	928.7	0
93	97	928.8	0
93	97	928.9	0
93	97	929	0
93	97	929.1	0
93	97	929.2	0
93	97	929.3	0
93	97	929.4	0
93	97	929.5	0
93	97	929.6	0
93	97	929.7	0
93	97	929.8	0
93	97	929.9	0
93	97	930	0
93	97	930.1	0
93	97	930.2	0
93	97	930.3	0
93	97	930.4	0
93	97	930.5	0
93	97	930.6	0
93	97	930.7	0
93	97	930.8	0
93	97	930.9	0
93	97	931	0
93	97	931.1	0
93	97	931.2	0
93	97	931.3	0
93	97	931.4	0
93	97	931.5	0
93	97	931.6	0
93	97	931.7	0
93	97	931.8	0
93	97	931.9	0
93	97	932	0
93	97	932.1	0
93	97	932.2	0
93	97	932.3	0
93	97	932.4	0
93	97	932.5	0
93	97	932.6	0
93	97	932.7	0
93	97	932.8	0
93	97	932.9	0
93	97	933	0
93	97	933.1	0
93	97	933.2	0
93	97	933.3	0
93	97	933.4	0
93	97	933.5	0
93	97	933.6	0
93	97	933.7	0
93	97	933.8	0
93	97	933.9	0
93	97	934	0
93	97	934.1	0
93	97	934.2	0
93	97	934.3	0
93	97	934.4	0
93	97	934.5	0
93	97	934.6	0
93	97	934.7	0
93	97	934.8	0
93	97	934.9	0
93	97	935	0
93	97	935.1	0
93	97	935.2	0
93	97	935.3	0
93	97	935.4	0
93	97	935.5	0
93	97	935.6	0
93	97	935.7	0
93	97	935.8	0
93	97	935.9	0
93	97	936	0
93	97	936.1	0
93	97	936.2	0
93	97	936.3	0
93	97	936.4	0
93	97	936.5	0
93	97	936.6	0
93	97	936.7	0
93	97	936.71213288089	0

